* NGSPICE file created from pcpi_mul.ext - technology: gf180mcuD

* Black-box entry subcircuit for gf180mcu_fd_sc_mcu7t5v0__nor2_1 abstract view
.subckt gf180mcu_fd_sc_mcu7t5v0__nor2_1 A1 A2 ZN VDD VNW VPW VSS
.ends

* Black-box entry subcircuit for gf180mcu_fd_sc_mcu7t5v0__dffq_1 abstract view
.subckt gf180mcu_fd_sc_mcu7t5v0__dffq_1 D CLK Q VDD VNW VPW VSS
.ends

* Black-box entry subcircuit for gf180mcu_fd_sc_mcu7t5v0__nand3_1 abstract view
.subckt gf180mcu_fd_sc_mcu7t5v0__nand3_1 A1 A2 A3 ZN VDD VNW VPW VSS
.ends

* Black-box entry subcircuit for gf180mcu_fd_sc_mcu7t5v0__filltie abstract view
.subckt gf180mcu_fd_sc_mcu7t5v0__filltie VDD VSS
.ends

* Black-box entry subcircuit for gf180mcu_fd_sc_mcu7t5v0__antenna abstract view
.subckt gf180mcu_fd_sc_mcu7t5v0__antenna I VDD VNW VPW VSS
.ends

* Black-box entry subcircuit for gf180mcu_fd_sc_mcu7t5v0__fillcap_64 abstract view
.subckt gf180mcu_fd_sc_mcu7t5v0__fillcap_64 VDD VNW VPW VSS
.ends

* Black-box entry subcircuit for gf180mcu_fd_sc_mcu7t5v0__fill_2 abstract view
.subckt gf180mcu_fd_sc_mcu7t5v0__fill_2 VDD VNW VPW VSS
.ends

* Black-box entry subcircuit for gf180mcu_fd_sc_mcu7t5v0__fillcap_4 abstract view
.subckt gf180mcu_fd_sc_mcu7t5v0__fillcap_4 VDD VNW VPW VSS
.ends

* Black-box entry subcircuit for gf180mcu_fd_sc_mcu7t5v0__fillcap_32 abstract view
.subckt gf180mcu_fd_sc_mcu7t5v0__fillcap_32 VDD VNW VPW VSS
.ends

* Black-box entry subcircuit for gf180mcu_fd_sc_mcu7t5v0__fill_1 abstract view
.subckt gf180mcu_fd_sc_mcu7t5v0__fill_1 VDD VNW VPW VSS
.ends

* Black-box entry subcircuit for gf180mcu_fd_sc_mcu7t5v0__clkinv_1 abstract view
.subckt gf180mcu_fd_sc_mcu7t5v0__clkinv_1 I ZN VDD VNW VPW VSS
.ends

* Black-box entry subcircuit for gf180mcu_fd_sc_mcu7t5v0__buf_1 abstract view
.subckt gf180mcu_fd_sc_mcu7t5v0__buf_1 I Z VDD VNW VPW VSS
.ends

* Black-box entry subcircuit for gf180mcu_fd_sc_mcu7t5v0__clkbuf_2 abstract view
.subckt gf180mcu_fd_sc_mcu7t5v0__clkbuf_2 I Z VDD VNW VPW VSS
.ends

* Black-box entry subcircuit for gf180mcu_fd_sc_mcu7t5v0__fillcap_16 abstract view
.subckt gf180mcu_fd_sc_mcu7t5v0__fillcap_16 VDD VNW VPW VSS
.ends

* Black-box entry subcircuit for gf180mcu_fd_sc_mcu7t5v0__oai222_2 abstract view
.subckt gf180mcu_fd_sc_mcu7t5v0__oai222_2 A1 A2 B1 B2 C1 C2 ZN VDD VNW VPW VSS
.ends

* Black-box entry subcircuit for gf180mcu_fd_sc_mcu7t5v0__oai21_1 abstract view
.subckt gf180mcu_fd_sc_mcu7t5v0__oai21_1 A1 A2 B ZN VDD VNW VPW VSS
.ends

* Black-box entry subcircuit for gf180mcu_fd_sc_mcu7t5v0__fillcap_8 abstract view
.subckt gf180mcu_fd_sc_mcu7t5v0__fillcap_8 VDD VNW VPW VSS
.ends

* Black-box entry subcircuit for gf180mcu_fd_sc_mcu7t5v0__aoi21_2 abstract view
.subckt gf180mcu_fd_sc_mcu7t5v0__aoi21_2 A1 A2 B ZN VDD VNW VPW VSS
.ends

* Black-box entry subcircuit for gf180mcu_fd_sc_mcu7t5v0__nand2_1 abstract view
.subckt gf180mcu_fd_sc_mcu7t5v0__nand2_1 A1 A2 ZN VDD VNW VPW VSS
.ends

* Black-box entry subcircuit for gf180mcu_fd_sc_mcu7t5v0__xnor2_1 abstract view
.subckt gf180mcu_fd_sc_mcu7t5v0__xnor2_1 A1 A2 ZN VDD VNW VPW VSS
.ends

* Black-box entry subcircuit for gf180mcu_fd_sc_mcu7t5v0__and3_1 abstract view
.subckt gf180mcu_fd_sc_mcu7t5v0__and3_1 A1 A2 A3 Z VDD VNW VPW VSS
.ends

* Black-box entry subcircuit for gf180mcu_fd_sc_mcu7t5v0__clkbuf_1 abstract view
.subckt gf180mcu_fd_sc_mcu7t5v0__clkbuf_1 I Z VDD VNW VPW VSS
.ends

* Black-box entry subcircuit for gf180mcu_fd_sc_mcu7t5v0__oai21_2 abstract view
.subckt gf180mcu_fd_sc_mcu7t5v0__oai21_2 A1 A2 B ZN VDD VNW VPW VSS
.ends

* Black-box entry subcircuit for gf180mcu_fd_sc_mcu7t5v0__nor3_1 abstract view
.subckt gf180mcu_fd_sc_mcu7t5v0__nor3_1 A1 A2 A3 ZN VDD VNW VPW VSS
.ends

* Black-box entry subcircuit for gf180mcu_fd_sc_mcu7t5v0__buf_8 abstract view
.subckt gf180mcu_fd_sc_mcu7t5v0__buf_8 I Z VDD VNW VPW VSS
.ends

* Black-box entry subcircuit for gf180mcu_fd_sc_mcu7t5v0__aoi22_1 abstract view
.subckt gf180mcu_fd_sc_mcu7t5v0__aoi22_1 A1 A2 B1 B2 ZN VDD VNW VPW VSS
.ends

* Black-box entry subcircuit for gf180mcu_fd_sc_mcu7t5v0__endcap abstract view
.subckt gf180mcu_fd_sc_mcu7t5v0__endcap VDD VSS
.ends

* Black-box entry subcircuit for gf180mcu_fd_sc_mcu7t5v0__buf_2 abstract view
.subckt gf180mcu_fd_sc_mcu7t5v0__buf_2 I Z VDD VNW VPW VSS
.ends

* Black-box entry subcircuit for gf180mcu_fd_sc_mcu7t5v0__clkbuf_16 abstract view
.subckt gf180mcu_fd_sc_mcu7t5v0__clkbuf_16 I Z VDD VNW VPW VSS
.ends

* Black-box entry subcircuit for gf180mcu_fd_sc_mcu7t5v0__and2_1 abstract view
.subckt gf180mcu_fd_sc_mcu7t5v0__and2_1 A1 A2 Z VDD VNW VPW VSS
.ends

* Black-box entry subcircuit for gf180mcu_fd_sc_mcu7t5v0__aoi21_1 abstract view
.subckt gf180mcu_fd_sc_mcu7t5v0__aoi21_1 A1 A2 B ZN VDD VNW VPW VSS
.ends

* Black-box entry subcircuit for gf180mcu_fd_sc_mcu7t5v0__nor4_2 abstract view
.subckt gf180mcu_fd_sc_mcu7t5v0__nor4_2 A1 A2 A3 A4 ZN VDD VNW VPW VSS
.ends

* Black-box entry subcircuit for gf180mcu_fd_sc_mcu7t5v0__oai22_1 abstract view
.subckt gf180mcu_fd_sc_mcu7t5v0__oai22_1 A1 A2 B1 B2 ZN VDD VNW VPW VSS
.ends

* Black-box entry subcircuit for gf180mcu_fd_sc_mcu7t5v0__inv_1 abstract view
.subckt gf180mcu_fd_sc_mcu7t5v0__inv_1 I ZN VDD VNW VPW VSS
.ends

* Black-box entry subcircuit for gf180mcu_fd_sc_mcu7t5v0__or2_1 abstract view
.subckt gf180mcu_fd_sc_mcu7t5v0__or2_1 A1 A2 Z VDD VNW VPW VSS
.ends

* Black-box entry subcircuit for gf180mcu_fd_sc_mcu7t5v0__xor2_1 abstract view
.subckt gf180mcu_fd_sc_mcu7t5v0__xor2_1 A1 A2 Z VDD VNW VPW VSS
.ends

* Black-box entry subcircuit for gf180mcu_fd_sc_mcu7t5v0__or3_1 abstract view
.subckt gf180mcu_fd_sc_mcu7t5v0__or3_1 A1 A2 A3 Z VDD VNW VPW VSS
.ends

* Black-box entry subcircuit for gf180mcu_fd_sc_mcu7t5v0__nand3_2 abstract view
.subckt gf180mcu_fd_sc_mcu7t5v0__nand3_2 A1 A2 A3 ZN VDD VNW VPW VSS
.ends

* Black-box entry subcircuit for gf180mcu_fd_sc_mcu7t5v0__nor2_2 abstract view
.subckt gf180mcu_fd_sc_mcu7t5v0__nor2_2 A1 A2 ZN VDD VNW VPW VSS
.ends

* Black-box entry subcircuit for gf180mcu_fd_sc_mcu7t5v0__dffq_2 abstract view
.subckt gf180mcu_fd_sc_mcu7t5v0__dffq_2 D CLK Q VDD VNW VPW VSS
.ends

* Black-box entry subcircuit for gf180mcu_fd_sc_mcu7t5v0__oai222_1 abstract view
.subckt gf180mcu_fd_sc_mcu7t5v0__oai222_1 A1 A2 B1 B2 C1 C2 ZN VDD VNW VPW VSS
.ends

* Black-box entry subcircuit for gf180mcu_fd_sc_mcu7t5v0__xor3_1 abstract view
.subckt gf180mcu_fd_sc_mcu7t5v0__xor3_1 A1 A2 A3 Z VDD VNW VPW VSS
.ends

* Black-box entry subcircuit for gf180mcu_fd_sc_mcu7t5v0__oai211_1 abstract view
.subckt gf180mcu_fd_sc_mcu7t5v0__oai211_1 A1 A2 B C ZN VDD VNW VPW VSS
.ends

* Black-box entry subcircuit for gf180mcu_fd_sc_mcu7t5v0__aoi211_1 abstract view
.subckt gf180mcu_fd_sc_mcu7t5v0__aoi211_1 A1 A2 B C ZN VDD VNW VPW VSS
.ends

* Black-box entry subcircuit for gf180mcu_fd_sc_mcu7t5v0__nor3_2 abstract view
.subckt gf180mcu_fd_sc_mcu7t5v0__nor3_2 A1 A2 A3 ZN VDD VNW VPW VSS
.ends

* Black-box entry subcircuit for gf180mcu_fd_sc_mcu7t5v0__oai32_1 abstract view
.subckt gf180mcu_fd_sc_mcu7t5v0__oai32_1 A1 A2 A3 B1 B2 ZN VDD VNW VPW VSS
.ends

* Black-box entry subcircuit for gf180mcu_fd_sc_mcu7t5v0__nor4_1 abstract view
.subckt gf180mcu_fd_sc_mcu7t5v0__nor4_1 A1 A2 A3 A4 ZN VDD VNW VPW VSS
.ends

* Black-box entry subcircuit for gf180mcu_fd_sc_mcu7t5v0__nand4_1 abstract view
.subckt gf180mcu_fd_sc_mcu7t5v0__nand4_1 A1 A2 A3 A4 ZN VDD VNW VPW VSS
.ends

.subckt pcpi_mul clk pcpi_insn[0] pcpi_insn[10] pcpi_insn[11] pcpi_insn[12] pcpi_insn[13]
+ pcpi_insn[14] pcpi_insn[15] pcpi_insn[16] pcpi_insn[17] pcpi_insn[18] pcpi_insn[19]
+ pcpi_insn[1] pcpi_insn[20] pcpi_insn[21] pcpi_insn[22] pcpi_insn[23] pcpi_insn[24]
+ pcpi_insn[25] pcpi_insn[26] pcpi_insn[27] pcpi_insn[28] pcpi_insn[29] pcpi_insn[2]
+ pcpi_insn[30] pcpi_insn[31] pcpi_insn[3] pcpi_insn[4] pcpi_insn[5] pcpi_insn[6]
+ pcpi_insn[7] pcpi_insn[8] pcpi_insn[9] pcpi_mul_rd[0] pcpi_mul_rd[10] pcpi_mul_rd[11]
+ pcpi_mul_rd[12] pcpi_mul_rd[13] pcpi_mul_rd[14] pcpi_mul_rd[15] pcpi_mul_rd[16]
+ pcpi_mul_rd[17] pcpi_mul_rd[18] pcpi_mul_rd[19] pcpi_mul_rd[1] pcpi_mul_rd[20] pcpi_mul_rd[21]
+ pcpi_mul_rd[22] pcpi_mul_rd[23] pcpi_mul_rd[24] pcpi_mul_rd[25] pcpi_mul_rd[26]
+ pcpi_mul_rd[27] pcpi_mul_rd[28] pcpi_mul_rd[29] pcpi_mul_rd[2] pcpi_mul_rd[30] pcpi_mul_rd[31]
+ pcpi_mul_rd[3] pcpi_mul_rd[4] pcpi_mul_rd[5] pcpi_mul_rd[6] pcpi_mul_rd[7] pcpi_mul_rd[8]
+ pcpi_mul_rd[9] pcpi_mul_ready pcpi_mul_valid pcpi_mul_wait pcpi_mul_wr pcpi_rs1[0]
+ pcpi_rs1[10] pcpi_rs1[11] pcpi_rs1[12] pcpi_rs1[13] pcpi_rs1[14] pcpi_rs1[15] pcpi_rs1[16]
+ pcpi_rs1[17] pcpi_rs1[18] pcpi_rs1[19] pcpi_rs1[1] pcpi_rs1[20] pcpi_rs1[21] pcpi_rs1[22]
+ pcpi_rs1[23] pcpi_rs1[24] pcpi_rs1[25] pcpi_rs1[26] pcpi_rs1[27] pcpi_rs1[28] pcpi_rs1[29]
+ pcpi_rs1[2] pcpi_rs1[30] pcpi_rs1[31] pcpi_rs1[3] pcpi_rs1[4] pcpi_rs1[5] pcpi_rs1[6]
+ pcpi_rs1[7] pcpi_rs1[8] pcpi_rs1[9] pcpi_rs2[0] pcpi_rs2[10] pcpi_rs2[11] pcpi_rs2[12]
+ pcpi_rs2[13] pcpi_rs2[14] pcpi_rs2[15] pcpi_rs2[16] pcpi_rs2[17] pcpi_rs2[18] pcpi_rs2[19]
+ pcpi_rs2[1] pcpi_rs2[20] pcpi_rs2[21] pcpi_rs2[22] pcpi_rs2[23] pcpi_rs2[24] pcpi_rs2[25]
+ pcpi_rs2[26] pcpi_rs2[27] pcpi_rs2[28] pcpi_rs2[29] pcpi_rs2[2] pcpi_rs2[30] pcpi_rs2[31]
+ pcpi_rs2[3] pcpi_rs2[4] pcpi_rs2[5] pcpi_rs2[6] pcpi_rs2[7] pcpi_rs2[8] pcpi_rs2[9]
+ resetn vdd vss
X_2106_ picorv32_pcpi_mul_inst_0.rd\[28\] picorv32_pcpi_mul_inst_0.rdx\[28\] _0485_
+ vdd vdd vss vss gf180mcu_fd_sc_mcu7t5v0__nor2_1
X_3086_ _0203_ clknet_leaf_11_clk picorv32_pcpi_mul_inst_0.next_rs1\[45\] vdd vdd
+ vss vss gf180mcu_fd_sc_mcu7t5v0__dffq_1
X_2037_ picorv32_pcpi_mul_inst_0.rd\[21\] picorv32_pcpi_mul_inst_0.next_rs2\[22\]
+ _1427_ _0423_ vdd vdd vss vss gf180mcu_fd_sc_mcu7t5v0__nand3_1
XTAP_TAPCELL_ROW_37_456 vdd vss gf180mcu_fd_sc_mcu7t5v0__filltie
XANTENNA__1454__A1 _1124_ vdd vdd vss vss gf180mcu_fd_sc_mcu7t5v0__antenna
XANTENNA__2246__A3 _0536_ vdd vdd vss vss gf180mcu_fd_sc_mcu7t5v0__antenna
XFILLER_0_9_422 vdd vdd vss vss gf180mcu_fd_sc_mcu7t5v0__fillcap_64
XANTENNA__2174__B picorv32_pcpi_mul_inst_0.rd\[35\] vdd vdd vss vss gf180mcu_fd_sc_mcu7t5v0__antenna
XFILLER_0_76_177 vdd vdd vss vss gf180mcu_fd_sc_mcu7t5v0__fill_2
XTAP_TAPCELL_ROW_80_757 vdd vss gf180mcu_fd_sc_mcu7t5v0__filltie
XFILLER_0_91_136 vdd vdd vss vss gf180mcu_fd_sc_mcu7t5v0__fillcap_4
X_2939_ _0056_ clknet_leaf_26_clk picorv32_pcpi_mul_inst_0.next_rs2\[46\] vdd vdd
+ vss vss gf180mcu_fd_sc_mcu7t5v0__dffq_1
XFILLER_0_17_277 vdd vdd vss vss gf180mcu_fd_sc_mcu7t5v0__fill_2
XFILLER_0_17_266 vdd vdd vss vss gf180mcu_fd_sc_mcu7t5v0__fill_2
XFILLER_0_72_383 vdd vdd vss vss gf180mcu_fd_sc_mcu7t5v0__fill_2
XANTENNA_input73_I pcpi_rs2[2] vdd vdd vss vss gf180mcu_fd_sc_mcu7t5v0__antenna
XFILLER_0_4_171 vdd vdd vss vss gf180mcu_fd_sc_mcu7t5v0__fillcap_4
XTAP_TAPCELL_ROW_88_813 vdd vss gf180mcu_fd_sc_mcu7t5v0__filltie
XANTENNA__2237__A3 _0525_ vdd vdd vss vss gf180mcu_fd_sc_mcu7t5v0__antenna
XANTENNA__1479__I _1146_ vdd vdd vss vss gf180mcu_fd_sc_mcu7t5v0__antenna
XFILLER_0_67_166 vdd vdd vss vss gf180mcu_fd_sc_mcu7t5v0__fill_2
XANTENNA__2103__I _0446_ vdd vdd vss vss gf180mcu_fd_sc_mcu7t5v0__antenna
XFILLER_0_48_37 vdd vdd vss vss gf180mcu_fd_sc_mcu7t5v0__fillcap_32
XANTENNA__1942__I _1405_ vdd vdd vss vss gf180mcu_fd_sc_mcu7t5v0__antenna
XANTENNA__2773__I net86 vdd vdd vss vss gf180mcu_fd_sc_mcu7t5v0__antenna
XTAP_TAPCELL_ROW_34_437 vdd vss gf180mcu_fd_sc_mcu7t5v0__filltie
XFILLER_0_58_155 vdd vdd vss vss gf180mcu_fd_sc_mcu7t5v0__fill_2
XANTENNA__1987__A2 _0372_ vdd vdd vss vss gf180mcu_fd_sc_mcu7t5v0__antenna
XFILLER_0_46_317 vdd vdd vss vss gf180mcu_fd_sc_mcu7t5v0__fill_1
XFILLER_0_58_177 vdd vdd vss vss gf180mcu_fd_sc_mcu7t5v0__fill_2
XTAP_TAPCELL_ROW_42_492 vdd vss gf180mcu_fd_sc_mcu7t5v0__filltie
XFILLER_0_54_372 vdd vdd vss vss gf180mcu_fd_sc_mcu7t5v0__fill_1
XANTENNA__3005__CLK clknet_2_3__leaf_clk vdd vdd vss vss gf180mcu_fd_sc_mcu7t5v0__antenna
XFILLER_0_89_66 vdd vdd vss vss gf180mcu_fd_sc_mcu7t5v0__fillcap_4
XFILLER_0_14_247 vdd vdd vss vss gf180mcu_fd_sc_mcu7t5v0__fill_2
XFILLER_0_54_383 vdd vdd vss vss gf180mcu_fd_sc_mcu7t5v0__fill_2
X_2724_ net95 _0988_ vdd vdd vss vss gf180mcu_fd_sc_mcu7t5v0__clkinv_1
X_2655_ _0935_ _0936_ vdd vdd vss vss gf180mcu_fd_sc_mcu7t5v0__buf_1
X_1606_ _1211_ _1238_ vdd vdd vss vss gf180mcu_fd_sc_mcu7t5v0__clkbuf_2
XFILLER_0_10_431 vdd vdd vss vss gf180mcu_fd_sc_mcu7t5v0__fillcap_16
X_2586_ _0532_ picorv32_pcpi_mul_inst_0.next_rs1\[29\] picorv32_pcpi_mul_inst_0.next_rs1\[30\]
+ _0880_ _1158_ net42 _0884_ vdd vdd vss vss gf180mcu_fd_sc_mcu7t5v0__oai222_2
XANTENNA__2164__A2 _1404_ vdd vdd vss vss gf180mcu_fd_sc_mcu7t5v0__antenna
X_1537_ _1190_ picorv32_pcpi_mul_inst_0.next_rs2\[8\] _1186_ picorv32_pcpi_mul_inst_0.next_rs2\[7\]
+ _1184_ net80 _1191_ vdd vdd vss vss gf180mcu_fd_sc_mcu7t5v0__oai222_2
X_1468_ _1133_ _1135_ _1136_ _1137_ vdd vdd vss vss gf180mcu_fd_sc_mcu7t5v0__oai21_1
X_3069_ _0186_ clknet_leaf_3_clk picorv32_pcpi_mul_inst_0.next_rs1\[28\] vdd vdd vss
+ vss gf180mcu_fd_sc_mcu7t5v0__dffq_1
XFILLER_0_77_431 vdd vdd vss vss gf180mcu_fd_sc_mcu7t5v0__fillcap_32
XANTENNA__1978__A2 picorv32_pcpi_mul_inst_0.rd\[15\] vdd vdd vss vss gf180mcu_fd_sc_mcu7t5v0__antenna
XFILLER_0_92_489 vdd vdd vss vss gf180mcu_fd_sc_mcu7t5v0__fillcap_16
XFILLER_0_60_364 vdd vdd vss vss gf180mcu_fd_sc_mcu7t5v0__fill_2
XFILLER_0_18_18 vdd vdd vss vss gf180mcu_fd_sc_mcu7t5v0__fillcap_16
XFILLER_0_87_206 vdd vdd vss vss gf180mcu_fd_sc_mcu7t5v0__fillcap_4
XFILLER_0_68_453 vdd vdd vss vss gf180mcu_fd_sc_mcu7t5v0__fill_2
XFILLER_0_83_412 vdd vdd vss vss gf180mcu_fd_sc_mcu7t5v0__fillcap_8
XTAP_TAPCELL_ROW_31_418 vdd vss gf180mcu_fd_sc_mcu7t5v0__filltie
XFILLER_0_3_417 vdd vdd vss vss gf180mcu_fd_sc_mcu7t5v0__fill_2
XFILLER_0_36_383 vdd vdd vss vss gf180mcu_fd_sc_mcu7t5v0__fill_2
XFILLER_0_70_139 vdd vdd vss vss gf180mcu_fd_sc_mcu7t5v0__fill_1
X_2440_ _0779_ _0782_ _0780_ _0786_ vdd vdd vss vss gf180mcu_fd_sc_mcu7t5v0__aoi21_2
X_2371_ _0720_ _0724_ _1146_ _0725_ vdd vdd vss vss gf180mcu_fd_sc_mcu7t5v0__oai21_1
XTAP_TAPCELL_ROW_90_830 vdd vss gf180mcu_fd_sc_mcu7t5v0__filltie
XFILLER_0_34_309 vdd vdd vss vss gf180mcu_fd_sc_mcu7t5v0__fillcap_4
XFILLER_0_74_489 vdd vdd vss vss gf180mcu_fd_sc_mcu7t5v0__fillcap_16
XFILLER_0_6_255 vdd vdd vss vss gf180mcu_fd_sc_mcu7t5v0__fillcap_4
XFILLER_0_54_191 vdd vdd vss vss gf180mcu_fd_sc_mcu7t5v0__fill_2
X_2707_ _0888_ picorv32_pcpi_mul_inst_0.next_rs1\[61\] _0974_ vdd vdd vss vss gf180mcu_fd_sc_mcu7t5v0__nand2_1
X_2638_ _0914_ picorv32_pcpi_mul_inst_0.next_rs1\[43\] _0923_ vdd vdd vss vss gf180mcu_fd_sc_mcu7t5v0__nand2_1
X_2569_ _0868_ picorv32_pcpi_mul_inst_0.next_rs1\[22\] picorv32_pcpi_mul_inst_0.next_rs1\[23\]
+ _0873_ _0870_ net34 _0874_ vdd vdd vss vss gf180mcu_fd_sc_mcu7t5v0__oai222_2
XANTENNA_input36_I pcpi_rs1[25] vdd vdd vss vss gf180mcu_fd_sc_mcu7t5v0__antenna
XFILLER_0_37_125 vdd vdd vss vss gf180mcu_fd_sc_mcu7t5v0__fill_2
XFILLER_0_65_489 vdd vdd vss vss gf180mcu_fd_sc_mcu7t5v0__fill_1
XFILLER_0_33_342 vdd vdd vss vss gf180mcu_fd_sc_mcu7t5v0__fill_2
XANTENNA__2128__A2 _0470_ vdd vdd vss vss gf180mcu_fd_sc_mcu7t5v0__antenna
XANTENNA__2588__I _1151_ vdd vdd vss vss gf180mcu_fd_sc_mcu7t5v0__antenna
XANTENNA__2300__A2 _0622_ vdd vdd vss vss gf180mcu_fd_sc_mcu7t5v0__antenna
XFILLER_0_61_26 vdd vdd vss vss gf180mcu_fd_sc_mcu7t5v0__fill_1
X_1940_ _0306_ picorv32_pcpi_mul_inst_0.rd\[11\] _0337_ vdd vdd vss vss gf180mcu_fd_sc_mcu7t5v0__nand2_1
X_1871_ picorv32_pcpi_mul_inst_0.rd\[5\] _0273_ _0274_ vdd vdd vss vss gf180mcu_fd_sc_mcu7t5v0__xnor2_1
XFILLER_0_28_169 vdd vdd vss vss gf180mcu_fd_sc_mcu7t5v0__fill_1
XFILLER_0_3_269 vdd vdd vss vss gf180mcu_fd_sc_mcu7t5v0__fillcap_8
XFILLER_0_86_34 vdd vdd vss vss gf180mcu_fd_sc_mcu7t5v0__fill_1
X_2423_ _0770_ _1376_ _1437_ _0771_ vdd vdd vss vss gf180mcu_fd_sc_mcu7t5v0__and3_1
XFILLER_0_50_8 vdd vdd vss vss gf180mcu_fd_sc_mcu7t5v0__fill_2
X_2354_ _0706_ _0708_ _0709_ _0129_ vdd vdd vss vss gf180mcu_fd_sc_mcu7t5v0__oai21_1
X_2285_ _0637_ _0647_ _0122_ vdd vdd vss vss gf180mcu_fd_sc_mcu7t5v0__nand2_1
XTAP_TAPCELL_ROW_67_668 vdd vss gf180mcu_fd_sc_mcu7t5v0__filltie
XFILLER_0_59_250 vdd vdd vss vss gf180mcu_fd_sc_mcu7t5v0__fill_2
XFILLER_0_74_242 vdd vdd vss vss gf180mcu_fd_sc_mcu7t5v0__fill_2
XANTENNA__1577__I _1182_ vdd vdd vss vss gf180mcu_fd_sc_mcu7t5v0__antenna
XTAP_TAPCELL_ROW_50_546 vdd vss gf180mcu_fd_sc_mcu7t5v0__filltie
XANTENNA_clkbuf_leaf_22_clk_I clknet_2_3__leaf_clk vdd vdd vss vss gf180mcu_fd_sc_mcu7t5v0__antenna
XFILLER_0_62_437 vdd vdd vss vss gf180mcu_fd_sc_mcu7t5v0__fillcap_16
XFILLER_0_42_172 vdd vdd vss vss gf180mcu_fd_sc_mcu7t5v0__fill_2
XANTENNA_clkbuf_leaf_37_clk_I clknet_2_1__leaf_clk vdd vdd vss vss gf180mcu_fd_sc_mcu7t5v0__antenna
XFILLER_0_2_291 vdd vdd vss vss gf180mcu_fd_sc_mcu7t5v0__fillcap_16
XFILLER_0_30_378 vdd vdd vss vss gf180mcu_fd_sc_mcu7t5v0__fill_2
XTAP_TAPCELL_ROW_7_246 vdd vss gf180mcu_fd_sc_mcu7t5v0__filltie
XTAP_TAPCELL_ROW_58_602 vdd vss gf180mcu_fd_sc_mcu7t5v0__filltie
XFILLER_0_38_412 vdd vdd vss vss gf180mcu_fd_sc_mcu7t5v0__fill_1
XFILLER_0_65_231 vdd vdd vss vss gf180mcu_fd_sc_mcu7t5v0__fill_2
XFILLER_0_53_404 vdd vdd vss vss gf180mcu_fd_sc_mcu7t5v0__fillcap_16
XANTENNA__2349__A2 _0592_ vdd vdd vss vss gf180mcu_fd_sc_mcu7t5v0__antenna
XFILLER_0_0_228 vdd vdd vss vss gf180mcu_fd_sc_mcu7t5v0__fill_2
XFILLER_0_33_194 vdd vdd vss vss gf180mcu_fd_sc_mcu7t5v0__fill_1
XFILLER_0_61_492 vdd vdd vss vss gf180mcu_fd_sc_mcu7t5v0__fillcap_16
X_2070_ picorv32_pcpi_mul_inst_0.next_rs2\[26\] _1410_ _0453_ vdd vdd vss vss gf180mcu_fd_sc_mcu7t5v0__nand2_1
XTAP_TAPCELL_ROW_64_649 vdd vss gf180mcu_fd_sc_mcu7t5v0__filltie
XFILLER_0_29_401 vdd vdd vss vss gf180mcu_fd_sc_mcu7t5v0__fill_2
XANTENNA__2781__I _0981_ vdd vdd vss vss gf180mcu_fd_sc_mcu7t5v0__antenna
XFILLER_0_72_69 vdd vdd vss vss gf180mcu_fd_sc_mcu7t5v0__fillcap_16
X_2972_ _0089_ clknet_leaf_40_clk picorv32_pcpi_mul_inst_0.rd\[12\] vdd vdd vss vss
+ gf180mcu_fd_sc_mcu7t5v0__dffq_1
X_1923_ picorv32_pcpi_mul_inst_0.next_rs2\[11\] _0320_ _0321_ vdd vdd vss vss gf180mcu_fd_sc_mcu7t5v0__nand2_1
XFILLER_0_21_40 vdd vdd vss vss gf180mcu_fd_sc_mcu7t5v0__fill_1
XFILLER_0_71_201 vdd vdd vss vss gf180mcu_fd_sc_mcu7t5v0__fill_2
X_1854_ _0255_ _0257_ _0258_ _0080_ vdd vdd vss vss gf180mcu_fd_sc_mcu7t5v0__oai21_1
XTAP_TAPCELL_ROW_12_281 vdd vss gf180mcu_fd_sc_mcu7t5v0__filltie
XFILLER_0_52_481 vdd vdd vss vss gf180mcu_fd_sc_mcu7t5v0__fill_2
X_1785_ _1249_ _1384_ vdd vdd vss vss gf180mcu_fd_sc_mcu7t5v0__clkbuf_1
XFILLER_0_12_389 vdd vdd vss vss gf180mcu_fd_sc_mcu7t5v0__fill_1
X_2406_ picorv32_pcpi_mul_inst_0.next_rs2\[59\] _1436_ _0756_ vdd vdd vss vss gf180mcu_fd_sc_mcu7t5v0__nand2_1
XTAP_TAPCELL_ROW_4_227 vdd vss gf180mcu_fd_sc_mcu7t5v0__filltie
X_2337_ _0686_ _0690_ _0687_ _0694_ vdd vdd vss vss gf180mcu_fd_sc_mcu7t5v0__oai21_2
X_2268_ _0628_ _0630_ _0631_ _0632_ vdd vdd vss vss gf180mcu_fd_sc_mcu7t5v0__nor3_1
X_2199_ _1260_ _0569_ vdd vdd vss vss gf180mcu_fd_sc_mcu7t5v0__buf_1
XFILLER_0_1_72 vdd vdd vss vss gf180mcu_fd_sc_mcu7t5v0__fillcap_64
XFILLER_0_47_220 vdd vdd vss vss gf180mcu_fd_sc_mcu7t5v0__fillcap_4
XFILLER_0_47_286 vdd vdd vss vss gf180mcu_fd_sc_mcu7t5v0__fill_2
XFILLER_0_62_267 vdd vdd vss vss gf180mcu_fd_sc_mcu7t5v0__fillcap_8
XFILLER_0_22_109 vdd vdd vss vss gf180mcu_fd_sc_mcu7t5v0__fill_1
XFILLER_0_43_492 vdd vdd vss vss gf180mcu_fd_sc_mcu7t5v0__fillcap_16
XANTENNA__2503__A2 _1406_ vdd vdd vss vss gf180mcu_fd_sc_mcu7t5v0__antenna
XANTENNA__2866__I net105 vdd vdd vss vss gf180mcu_fd_sc_mcu7t5v0__antenna
XFILLER_0_42_28 vdd vdd vss vss gf180mcu_fd_sc_mcu7t5v0__fill_2
XFILLER_0_53_212 vdd vdd vss vss gf180mcu_fd_sc_mcu7t5v0__fill_2
X_1570_ _1213_ _0028_ vdd vdd vss vss gf180mcu_fd_sc_mcu7t5v0__clkinv_1
X_2122_ _0496_ _0498_ _0475_ _0500_ vdd vdd vss vss gf180mcu_fd_sc_mcu7t5v0__oai21_1
XTAP_TAPCELL_ROW_1_208 vdd vss gf180mcu_fd_sc_mcu7t5v0__filltie
X_2053_ _0433_ _0436_ _0429_ _0438_ vdd vdd vss vss gf180mcu_fd_sc_mcu7t5v0__oai21_1
XFILLER_0_76_337 vdd vdd vss vss gf180mcu_fd_sc_mcu7t5v0__fill_1
XFILLER_0_29_286 vdd vdd vss vss gf180mcu_fd_sc_mcu7t5v0__fill_2
X_2955_ _0072_ clknet_leaf_18_clk picorv32_pcpi_mul_inst_0.next_rs2\[62\] vdd vdd
+ vss vss gf180mcu_fd_sc_mcu7t5v0__dffq_1
X_1906_ _0305_ _0306_ vdd vdd vss vss gf180mcu_fd_sc_mcu7t5v0__buf_1
XANTENNA__2430__A1 _1399_ vdd vdd vss vss gf180mcu_fd_sc_mcu7t5v0__antenna
X_2886_ _0005_ clknet_leaf_8_clk picorv32_pcpi_mul_inst_0.instr_mulh vdd vdd vss vss
+ gf180mcu_fd_sc_mcu7t5v0__dffq_1
X_1837_ picorv32_pcpi_mul_inst_0.next_rs2\[3\] _1426_ _1430_ vdd vdd vss vss gf180mcu_fd_sc_mcu7t5v0__nand2_1
XFILLER_0_25_492 vdd vdd vss vss gf180mcu_fd_sc_mcu7t5v0__fillcap_16
XFILLER_0_40_473 vdd vdd vss vss gf180mcu_fd_sc_mcu7t5v0__fillcap_8
X_1768_ _1370_ _0069_ vdd vdd vss vss gf180mcu_fd_sc_mcu7t5v0__clkinv_1
X_1699_ _1314_ _0056_ vdd vdd vss vss gf180mcu_fd_sc_mcu7t5v0__clkinv_1
XANTENNA_output105_I net105 vdd vdd vss vss gf180mcu_fd_sc_mcu7t5v0__antenna
XTAP_TAPCELL_ROW_83_777 vdd vss gf180mcu_fd_sc_mcu7t5v0__filltie
XFILLER_0_35_267 vdd vdd vss vss gf180mcu_fd_sc_mcu7t5v0__fill_1
XFILLER_0_50_215 vdd vdd vss vss gf180mcu_fd_sc_mcu7t5v0__fill_2
XFILLER_0_31_440 vdd vdd vss vss gf180mcu_fd_sc_mcu7t5v0__fillcap_32
Xoutput86 net86 pcpi_mul_rd[11] vdd vdd vss vss gf180mcu_fd_sc_mcu7t5v0__buf_8
Xoutput97 net97 pcpi_mul_rd[21] vdd vdd vss vss gf180mcu_fd_sc_mcu7t5v0__buf_8
XANTENNA__2596__I _1388_ vdd vdd vss vss gf180mcu_fd_sc_mcu7t5v0__antenna
XFILLER_0_58_304 vdd vdd vss vss gf180mcu_fd_sc_mcu7t5v0__fill_1
XFILLER_0_26_201 vdd vdd vss vss gf180mcu_fd_sc_mcu7t5v0__fill_2
X_2740_ _0982_ _1001_ vdd vdd vss vss gf180mcu_fd_sc_mcu7t5v0__buf_1
X_2671_ _0939_ picorv32_pcpi_mul_inst_0.next_rs1\[51\] _0948_ vdd vdd vss vss gf180mcu_fd_sc_mcu7t5v0__nand2_1
XFILLER_0_41_226 vdd vdd vss vss gf180mcu_fd_sc_mcu7t5v0__fill_2
X_1622_ picorv32_pcpi_mul_inst_0.instr_mulh _1244_ _1251_ vdd vdd vss vss gf180mcu_fd_sc_mcu7t5v0__nand2_1
X_1553_ _1198_ _1200_ _1195_ picorv32_pcpi_mul_inst_0.next_rs2\[12\] _1201_ net54
+ _1202_ vdd vdd vss vss gf180mcu_fd_sc_mcu7t5v0__oai222_2
XFILLER_0_1_356 vdd vdd vss vss gf180mcu_fd_sc_mcu7t5v0__fillcap_16
X_1484_ _1141_ _1150_ vdd vdd vss vss gf180mcu_fd_sc_mcu7t5v0__clkbuf_2
XANTENNA__2191__A3 _1411_ vdd vdd vss vss gf180mcu_fd_sc_mcu7t5v0__antenna
XFILLER_0_27_72 vdd vdd vss vss gf180mcu_fd_sc_mcu7t5v0__fill_1
X_2105_ _0480_ _0482_ _0484_ _0105_ vdd vdd vss vss gf180mcu_fd_sc_mcu7t5v0__oai21_1
X_3085_ _0202_ clknet_leaf_12_clk picorv32_pcpi_mul_inst_0.next_rs1\[44\] vdd vdd
+ vss vss gf180mcu_fd_sc_mcu7t5v0__dffq_1
X_2036_ _0420_ _0421_ _0422_ _0098_ vdd vdd vss vss gf180mcu_fd_sc_mcu7t5v0__oai21_1
XTAP_TAPCELL_ROW_37_457 vdd vss gf180mcu_fd_sc_mcu7t5v0__filltie
XFILLER_0_49_348 vdd vdd vss vss gf180mcu_fd_sc_mcu7t5v0__fill_2
XFILLER_0_43_60 vdd vdd vss vss gf180mcu_fd_sc_mcu7t5v0__fillcap_8
XFILLER_0_43_82 vdd vdd vss vss gf180mcu_fd_sc_mcu7t5v0__fillcap_8
XTAP_TAPCELL_ROW_80_758 vdd vss gf180mcu_fd_sc_mcu7t5v0__filltie
XFILLER_0_57_370 vdd vdd vss vss gf180mcu_fd_sc_mcu7t5v0__fill_1
X_2938_ _0055_ clknet_leaf_22_clk picorv32_pcpi_mul_inst_0.next_rs2\[45\] vdd vdd
+ vss vss gf180mcu_fd_sc_mcu7t5v0__dffq_1
XFILLER_0_17_256 vdd vdd vss vss gf180mcu_fd_sc_mcu7t5v0__fill_2
XANTENNA__2403__A1 _1250_ vdd vdd vss vss gf180mcu_fd_sc_mcu7t5v0__antenna
XTAP_TAPCELL_ROW_20_335 vdd vss gf180mcu_fd_sc_mcu7t5v0__filltie
X_2869_ _1102_ _1098_ _1103_ _1104_ _0249_ vdd vdd vss vss gf180mcu_fd_sc_mcu7t5v0__aoi22_1
XANTENNA_input66_I pcpi_rs2[23] vdd vdd vss vss gf180mcu_fd_sc_mcu7t5v0__antenna
XFILLER_0_40_292 vdd vdd vss vss gf180mcu_fd_sc_mcu7t5v0__fill_1
XTAP_TAPCELL_ROW_88_814 vdd vss gf180mcu_fd_sc_mcu7t5v0__filltie
XFILLER_0_55_318 vdd vdd vss vss gf180mcu_fd_sc_mcu7t5v0__fill_2
XPHY_EDGE_ROW_39_Left_133 vdd vss gf180mcu_fd_sc_mcu7t5v0__endcap
XANTENNA__2173__A3 _0468_ vdd vdd vss vss gf180mcu_fd_sc_mcu7t5v0__antenna
XPHY_EDGE_ROW_48_Left_142 vdd vss gf180mcu_fd_sc_mcu7t5v0__endcap
XFILLER_0_64_37 vdd vdd vss vss gf180mcu_fd_sc_mcu7t5v0__fillcap_8
XTAP_TAPCELL_ROW_34_438 vdd vss gf180mcu_fd_sc_mcu7t5v0__filltie
XFILLER_0_73_126 vdd vdd vss vss gf180mcu_fd_sc_mcu7t5v0__fill_2
XFILLER_0_73_115 vdd vdd vss vss gf180mcu_fd_sc_mcu7t5v0__fill_1
XFILLER_0_73_159 vdd vdd vss vss gf180mcu_fd_sc_mcu7t5v0__fill_2
XTAP_TAPCELL_ROW_42_493 vdd vss gf180mcu_fd_sc_mcu7t5v0__filltie
X_2723_ _0977_ _0980_ _0984_ _0987_ _0220_ vdd vdd vss vss gf180mcu_fd_sc_mcu7t5v0__aoi22_1
XFILLER_0_14_237 vdd vdd vss vss gf180mcu_fd_sc_mcu7t5v0__fill_2
XFILLER_0_54_395 vdd vdd vss vss gf180mcu_fd_sc_mcu7t5v0__fill_2
XPHY_EDGE_ROW_57_Left_151 vdd vss gf180mcu_fd_sc_mcu7t5v0__endcap
X_2654_ _1393_ _0935_ vdd vdd vss vss gf180mcu_fd_sc_mcu7t5v0__clkbuf_1
XFILLER_0_1_142 vdd vdd vss vss gf180mcu_fd_sc_mcu7t5v0__fillcap_8
X_1605_ _1237_ _0039_ vdd vdd vss vss gf180mcu_fd_sc_mcu7t5v0__clkinv_1
X_2585_ _0883_ _0186_ vdd vdd vss vss gf180mcu_fd_sc_mcu7t5v0__clkinv_1
XFILLER_0_22_292 vdd vdd vss vss gf180mcu_fd_sc_mcu7t5v0__fill_2
X_1536_ _1189_ _1190_ vdd vdd vss vss gf180mcu_fd_sc_mcu7t5v0__buf_2
XFILLER_0_1_175 vdd vdd vss vss gf180mcu_fd_sc_mcu7t5v0__fillcap_16
XFILLER_0_1_197 vdd vdd vss vss gf180mcu_fd_sc_mcu7t5v0__fill_1
X_1467_ _1124_ _1136_ vdd vdd vss vss gf180mcu_fd_sc_mcu7t5v0__buf_1
XPHY_EDGE_ROW_66_Left_160 vdd vss gf180mcu_fd_sc_mcu7t5v0__endcap
XTAP_TAPCELL_ROW_93_850 vdd vss gf180mcu_fd_sc_mcu7t5v0__filltie
X_3068_ _0185_ clknet_leaf_3_clk picorv32_pcpi_mul_inst_0.next_rs1\[27\] vdd vdd vss
+ vss gf180mcu_fd_sc_mcu7t5v0__dffq_1
X_2019_ picorv32_pcpi_mul_inst_0.rd\[20\] _0407_ vdd vdd vss vss gf180mcu_fd_sc_mcu7t5v0__buf_1
XFILLER_0_64_104 vdd vdd vss vss gf180mcu_fd_sc_mcu7t5v0__fill_1
XFILLER_0_77_487 vdd vdd vss vss gf180mcu_fd_sc_mcu7t5v0__fill_2
XFILLER_0_92_457 vdd vdd vss vss gf180mcu_fd_sc_mcu7t5v0__fillcap_32
XFILLER_0_64_137 vdd vdd vss vss gf180mcu_fd_sc_mcu7t5v0__fill_2
XFILLER_0_72_192 vdd vdd vss vss gf180mcu_fd_sc_mcu7t5v0__fill_2
XFILLER_0_5_492 vdd vdd vss vss gf180mcu_fd_sc_mcu7t5v0__fillcap_16
XFILLER_0_60_387 vdd vdd vss vss gf180mcu_fd_sc_mcu7t5v0__fillcap_16
XFILLER_0_68_421 vdd vdd vss vss gf180mcu_fd_sc_mcu7t5v0__fill_2
XFILLER_0_50_28 vdd vdd vss vss gf180mcu_fd_sc_mcu7t5v0__fillcap_4
XFILLER_0_55_137 vdd vdd vss vss gf180mcu_fd_sc_mcu7t5v0__fill_1
XFILLER_0_36_351 vdd vdd vss vss gf180mcu_fd_sc_mcu7t5v0__fill_2
XFILLER_0_70_107 vdd vdd vss vss gf180mcu_fd_sc_mcu7t5v0__fillcap_4
XFILLER_0_70_118 vdd vdd vss vss gf180mcu_fd_sc_mcu7t5v0__fill_1
XFILLER_0_51_343 vdd vdd vss vss gf180mcu_fd_sc_mcu7t5v0__fillcap_4
XANTENNA__2394__A3 _0527_ vdd vdd vss vss gf180mcu_fd_sc_mcu7t5v0__antenna
XFILLER_0_11_229 vdd vdd vss vss gf180mcu_fd_sc_mcu7t5v0__fill_1
XFILLER_0_59_48 vdd vdd vss vss gf180mcu_fd_sc_mcu7t5v0__fill_1
X_2370_ _0721_ _0723_ _0724_ vdd vdd vss vss gf180mcu_fd_sc_mcu7t5v0__nand2_1
XTAP_TAPCELL_ROW_47_530 vdd vss gf180mcu_fd_sc_mcu7t5v0__filltie
XTAP_TAPCELL_ROW_90_831 vdd vss gf180mcu_fd_sc_mcu7t5v0__filltie
XFILLER_0_46_115 vdd vdd vss vss gf180mcu_fd_sc_mcu7t5v0__fillcap_8
XFILLER_0_6_201 vdd vdd vss vss gf180mcu_fd_sc_mcu7t5v0__fill_2
XFILLER_0_74_457 vdd vdd vss vss gf180mcu_fd_sc_mcu7t5v0__fillcap_32
XFILLER_0_30_505 vdd vdd vss vss gf180mcu_fd_sc_mcu7t5v0__fillcap_4
XANTENNA__2024__I _0305_ vdd vdd vss vss gf180mcu_fd_sc_mcu7t5v0__antenna
XFILLER_0_40_94 vdd vdd vss vss gf180mcu_fd_sc_mcu7t5v0__fill_1
X_2706_ picorv32_pcpi_mul_inst_0.next_rs1\[60\] _0973_ vdd vdd vss vss gf180mcu_fd_sc_mcu7t5v0__clkinv_1
XANTENNA__2385__A3 _1437_ vdd vdd vss vss gf180mcu_fd_sc_mcu7t5v0__antenna
XPHY_EDGE_ROW_12_Right_12 vdd vss gf180mcu_fd_sc_mcu7t5v0__endcap
X_2637_ _1394_ _0922_ vdd vdd vss vss gf180mcu_fd_sc_mcu7t5v0__buf_1
XFILLER_0_2_451 vdd vdd vss vss gf180mcu_fd_sc_mcu7t5v0__fillcap_4
X_2568_ _0858_ _0873_ vdd vdd vss vss gf180mcu_fd_sc_mcu7t5v0__clkbuf_2
X_1519_ _1171_ picorv32_pcpi_mul_inst_0.next_rs2\[3\] _1175_ _1172_ _1176_ net73 _1178_
+ vdd vdd vss vss gf180mcu_fd_sc_mcu7t5v0__oai222_2
X_2499_ net117 _0828_ vdd vdd vss vss gf180mcu_fd_sc_mcu7t5v0__clkinv_1
XANTENNA_input29_I pcpi_rs1[19] vdd vdd vss vss gf180mcu_fd_sc_mcu7t5v0__antenna
XPHY_EDGE_ROW_21_Right_21 vdd vss gf180mcu_fd_sc_mcu7t5v0__endcap
XTAP_TAPCELL_ROW_53_566 vdd vss gf180mcu_fd_sc_mcu7t5v0__filltie
XFILLER_0_52_107 vdd vdd vss vss gf180mcu_fd_sc_mcu7t5v0__fill_2
XFILLER_0_18_384 vdd vdd vss vss gf180mcu_fd_sc_mcu7t5v0__fill_1
XPHY_EDGE_ROW_30_Right_30 vdd vss gf180mcu_fd_sc_mcu7t5v0__endcap
XANTENNA__2376__A3 _0620_ vdd vdd vss vss gf180mcu_fd_sc_mcu7t5v0__antenna
XANTENNA__1584__A1 _1215_ vdd vdd vss vss gf180mcu_fd_sc_mcu7t5v0__antenna
XANTENNA__1887__A2 picorv32_pcpi_mul_inst_0.rd\[6\] vdd vdd vss vss gf180mcu_fd_sc_mcu7t5v0__antenna
XFILLER_0_45_28 vdd vdd vss vss gf180mcu_fd_sc_mcu7t5v0__fillcap_32
XFILLER_0_88_505 vdd vdd vss vss gf180mcu_fd_sc_mcu7t5v0__fillcap_4
XFILLER_0_61_16 vdd vdd vss vss gf180mcu_fd_sc_mcu7t5v0__fillcap_8
XFILLER_0_68_262 vdd vdd vss vss gf180mcu_fd_sc_mcu7t5v0__fill_2
XANTENNA__1948__I _0305_ vdd vdd vss vss gf180mcu_fd_sc_mcu7t5v0__antenna
XFILLER_0_56_457 vdd vdd vss vss gf180mcu_fd_sc_mcu7t5v0__fillcap_16
X_1870_ picorv32_pcpi_mul_inst_0.next_rs2\[6\] _0272_ _0273_ vdd vdd vss vss gf180mcu_fd_sc_mcu7t5v0__nand2_1
XFILLER_0_24_321 vdd vdd vss vss gf180mcu_fd_sc_mcu7t5v0__fill_1
XFILLER_0_71_427 vdd vdd vss vss gf180mcu_fd_sc_mcu7t5v0__fill_2
XFILLER_0_36_192 vdd vdd vss vss gf180mcu_fd_sc_mcu7t5v0__fill_2
XANTENNA__2367__A3 _0651_ vdd vdd vss vss gf180mcu_fd_sc_mcu7t5v0__antenna
XFILLER_0_12_505 vdd vdd vss vss gf180mcu_fd_sc_mcu7t5v0__fillcap_4
XFILLER_0_3_248 vdd vdd vss vss gf180mcu_fd_sc_mcu7t5v0__fill_2
XANTENNA__2779__I net87 vdd vdd vss vss gf180mcu_fd_sc_mcu7t5v0__antenna
XANTENNA__1683__I _1300_ vdd vdd vss vss gf180mcu_fd_sc_mcu7t5v0__antenna
X_2422_ picorv32_pcpi_mul_inst_0.rd\[60\] _0770_ vdd vdd vss vss gf180mcu_fd_sc_mcu7t5v0__buf_1
XFILLER_0_19_40 vdd vdd vss vss gf180mcu_fd_sc_mcu7t5v0__fill_2
X_2353_ _0674_ _0703_ _0709_ vdd vdd vss vss gf180mcu_fd_sc_mcu7t5v0__nand2_1
XFILLER_0_43_8 vdd vdd vss vss gf180mcu_fd_sc_mcu7t5v0__fill_2
XFILLER_0_19_84 vdd vdd vss vss gf180mcu_fd_sc_mcu7t5v0__fill_2