* NGSPICE file created from pcpi_exact_mul.ext - technology: gf180mcuD

* Black-box entry subcircuit for gf180mcu_fd_sc_mcu7t5v0__xor3_2 abstract view
.subckt gf180mcu_fd_sc_mcu7t5v0__xor3_2 A1 A2 A3 Z VDD VNW VPW VSS
.ends

* Black-box entry subcircuit for gf180mcu_fd_sc_mcu7t5v0__nand2_1 abstract view
.subckt gf180mcu_fd_sc_mcu7t5v0__nand2_1 A1 A2 ZN VDD VNW VPW VSS
.ends

* Black-box entry subcircuit for gf180mcu_fd_sc_mcu7t5v0__oai211_1 abstract view
.subckt gf180mcu_fd_sc_mcu7t5v0__oai211_1 A1 A2 B C ZN VDD VNW VPW VSS
.ends

* Black-box entry subcircuit for gf180mcu_fd_sc_mcu7t5v0__and2_1 abstract view
.subckt gf180mcu_fd_sc_mcu7t5v0__and2_1 A1 A2 Z VDD VNW VPW VSS
.ends

* Black-box entry subcircuit for gf180mcu_fd_sc_mcu7t5v0__fillcap_4 abstract view
.subckt gf180mcu_fd_sc_mcu7t5v0__fillcap_4 VDD VNW VPW VSS
.ends

* Black-box entry subcircuit for gf180mcu_fd_sc_mcu7t5v0__nor3_1 abstract view
.subckt gf180mcu_fd_sc_mcu7t5v0__nor3_1 A1 A2 A3 ZN VDD VNW VPW VSS
.ends

* Black-box entry subcircuit for gf180mcu_fd_sc_mcu7t5v0__antenna abstract view
.subckt gf180mcu_fd_sc_mcu7t5v0__antenna I VDD VNW VPW VSS
.ends

* Black-box entry subcircuit for gf180mcu_fd_sc_mcu7t5v0__fill_2 abstract view
.subckt gf180mcu_fd_sc_mcu7t5v0__fill_2 VDD VNW VPW VSS
.ends

* Black-box entry subcircuit for gf180mcu_fd_sc_mcu7t5v0__filltie abstract view
.subckt gf180mcu_fd_sc_mcu7t5v0__filltie VDD VSS
.ends

* Black-box entry subcircuit for gf180mcu_fd_sc_mcu7t5v0__fillcap_8 abstract view
.subckt gf180mcu_fd_sc_mcu7t5v0__fillcap_8 VDD VNW VPW VSS
.ends

* Black-box entry subcircuit for gf180mcu_fd_sc_mcu7t5v0__fill_1 abstract view
.subckt gf180mcu_fd_sc_mcu7t5v0__fill_1 VDD VNW VPW VSS
.ends

* Black-box entry subcircuit for gf180mcu_fd_sc_mcu7t5v0__aoi21_1 abstract view
.subckt gf180mcu_fd_sc_mcu7t5v0__aoi21_1 A1 A2 B ZN VDD VNW VPW VSS
.ends

* Black-box entry subcircuit for gf180mcu_fd_sc_mcu7t5v0__xnor3_2 abstract view
.subckt gf180mcu_fd_sc_mcu7t5v0__xnor3_2 A1 A2 A3 ZN VDD VNW VPW VSS
.ends

* Black-box entry subcircuit for gf180mcu_fd_sc_mcu7t5v0__xor2_1 abstract view
.subckt gf180mcu_fd_sc_mcu7t5v0__xor2_1 A1 A2 Z VDD VNW VPW VSS
.ends

* Black-box entry subcircuit for gf180mcu_fd_sc_mcu7t5v0__fillcap_32 abstract view
.subckt gf180mcu_fd_sc_mcu7t5v0__fillcap_32 VDD VNW VPW VSS
.ends

* Black-box entry subcircuit for gf180mcu_fd_sc_mcu7t5v0__buf_1 abstract view
.subckt gf180mcu_fd_sc_mcu7t5v0__buf_1 I Z VDD VNW VPW VSS
.ends

* Black-box entry subcircuit for gf180mcu_fd_sc_mcu7t5v0__nor3_2 abstract view
.subckt gf180mcu_fd_sc_mcu7t5v0__nor3_2 A1 A2 A3 ZN VDD VNW VPW VSS
.ends

* Black-box entry subcircuit for gf180mcu_fd_sc_mcu7t5v0__or3_1 abstract view
.subckt gf180mcu_fd_sc_mcu7t5v0__or3_1 A1 A2 A3 Z VDD VNW VPW VSS
.ends

* Black-box entry subcircuit for gf180mcu_fd_sc_mcu7t5v0__clkbuf_1 abstract view
.subckt gf180mcu_fd_sc_mcu7t5v0__clkbuf_1 I Z VDD VNW VPW VSS
.ends

* Black-box entry subcircuit for gf180mcu_fd_sc_mcu7t5v0__dffq_1 abstract view
.subckt gf180mcu_fd_sc_mcu7t5v0__dffq_1 D CLK Q VDD VNW VPW VSS
.ends

* Black-box entry subcircuit for gf180mcu_fd_sc_mcu7t5v0__oai32_4 abstract view
.subckt gf180mcu_fd_sc_mcu7t5v0__oai32_4 A1 A2 A3 B1 B2 ZN VDD VNW VPW VSS
.ends

* Black-box entry subcircuit for gf180mcu_fd_sc_mcu7t5v0__fillcap_16 abstract view
.subckt gf180mcu_fd_sc_mcu7t5v0__fillcap_16 VDD VNW VPW VSS
.ends

* Black-box entry subcircuit for gf180mcu_fd_sc_mcu7t5v0__endcap abstract view
.subckt gf180mcu_fd_sc_mcu7t5v0__endcap VDD VSS
.ends

* Black-box entry subcircuit for gf180mcu_fd_sc_mcu7t5v0__xor2_2 abstract view
.subckt gf180mcu_fd_sc_mcu7t5v0__xor2_2 A1 A2 Z VDD VNW VPW VSS
.ends

* Black-box entry subcircuit for gf180mcu_fd_sc_mcu7t5v0__clkinv_1 abstract view
.subckt gf180mcu_fd_sc_mcu7t5v0__clkinv_1 I ZN VDD VNW VPW VSS
.ends

* Black-box entry subcircuit for gf180mcu_fd_sc_mcu7t5v0__clkbuf_2 abstract view
.subckt gf180mcu_fd_sc_mcu7t5v0__clkbuf_2 I Z VDD VNW VPW VSS
.ends

* Black-box entry subcircuit for gf180mcu_fd_sc_mcu7t5v0__aoi211_1 abstract view
.subckt gf180mcu_fd_sc_mcu7t5v0__aoi211_1 A1 A2 B C ZN VDD VNW VPW VSS
.ends

* Black-box entry subcircuit for gf180mcu_fd_sc_mcu7t5v0__aoi21_4 abstract view
.subckt gf180mcu_fd_sc_mcu7t5v0__aoi21_4 A1 A2 B ZN VDD VNW VPW VSS
.ends

* Black-box entry subcircuit for gf180mcu_fd_sc_mcu7t5v0__oai21_2 abstract view
.subckt gf180mcu_fd_sc_mcu7t5v0__oai21_2 A1 A2 B ZN VDD VNW VPW VSS
.ends

* Black-box entry subcircuit for gf180mcu_fd_sc_mcu7t5v0__nor2_1 abstract view
.subckt gf180mcu_fd_sc_mcu7t5v0__nor2_1 A1 A2 ZN VDD VNW VPW VSS
.ends

* Black-box entry subcircuit for gf180mcu_fd_sc_mcu7t5v0__fillcap_64 abstract view
.subckt gf180mcu_fd_sc_mcu7t5v0__fillcap_64 VDD VNW VPW VSS
.ends

* Black-box entry subcircuit for gf180mcu_fd_sc_mcu7t5v0__nand3_1 abstract view
.subckt gf180mcu_fd_sc_mcu7t5v0__nand3_1 A1 A2 A3 ZN VDD VNW VPW VSS
.ends

* Black-box entry subcircuit for gf180mcu_fd_sc_mcu7t5v0__oai33_4 abstract view
.subckt gf180mcu_fd_sc_mcu7t5v0__oai33_4 A1 A2 A3 B1 B2 B3 ZN VDD VNW VPW VSS
.ends

* Black-box entry subcircuit for gf180mcu_fd_sc_mcu7t5v0__buf_8 abstract view
.subckt gf180mcu_fd_sc_mcu7t5v0__buf_8 I Z VDD VNW VPW VSS
.ends

* Black-box entry subcircuit for gf180mcu_fd_sc_mcu7t5v0__or2_1 abstract view
.subckt gf180mcu_fd_sc_mcu7t5v0__or2_1 A1 A2 Z VDD VNW VPW VSS
.ends

* Black-box entry subcircuit for gf180mcu_fd_sc_mcu7t5v0__oai21_1 abstract view
.subckt gf180mcu_fd_sc_mcu7t5v0__oai21_1 A1 A2 B ZN VDD VNW VPW VSS
.ends

* Black-box entry subcircuit for gf180mcu_fd_sc_mcu7t5v0__nor2_2 abstract view
.subckt gf180mcu_fd_sc_mcu7t5v0__nor2_2 A1 A2 ZN VDD VNW VPW VSS
.ends

* Black-box entry subcircuit for gf180mcu_fd_sc_mcu7t5v0__nand2_2 abstract view
.subckt gf180mcu_fd_sc_mcu7t5v0__nand2_2 A1 A2 ZN VDD VNW VPW VSS
.ends

* Black-box entry subcircuit for gf180mcu_fd_sc_mcu7t5v0__xor3_1 abstract view
.subckt gf180mcu_fd_sc_mcu7t5v0__xor3_1 A1 A2 A3 Z VDD VNW VPW VSS
.ends

* Black-box entry subcircuit for gf180mcu_fd_sc_mcu7t5v0__aoi211_4 abstract view
.subckt gf180mcu_fd_sc_mcu7t5v0__aoi211_4 A1 A2 B C ZN VDD VNW VPW VSS
.ends

* Black-box entry subcircuit for gf180mcu_fd_sc_mcu7t5v0__and4_1 abstract view
.subckt gf180mcu_fd_sc_mcu7t5v0__and4_1 A1 A2 A3 A4 Z VDD VNW VPW VSS
.ends

* Black-box entry subcircuit for gf180mcu_fd_sc_mcu7t5v0__nor3_4 abstract view
.subckt gf180mcu_fd_sc_mcu7t5v0__nor3_4 A1 A2 A3 ZN VDD VNW VPW VSS
.ends

* Black-box entry subcircuit for gf180mcu_fd_sc_mcu7t5v0__aoi221_1 abstract view
.subckt gf180mcu_fd_sc_mcu7t5v0__aoi221_1 A1 A2 B1 B2 C ZN VDD VNW VPW VSS
.ends

* Black-box entry subcircuit for gf180mcu_fd_sc_mcu7t5v0__and3_1 abstract view
.subckt gf180mcu_fd_sc_mcu7t5v0__and3_1 A1 A2 A3 Z VDD VNW VPW VSS
.ends

* Black-box entry subcircuit for gf180mcu_fd_sc_mcu7t5v0__xnor2_1 abstract view
.subckt gf180mcu_fd_sc_mcu7t5v0__xnor2_1 A1 A2 ZN VDD VNW VPW VSS
.ends

* Black-box entry subcircuit for gf180mcu_fd_sc_mcu7t5v0__oai32_2 abstract view
.subckt gf180mcu_fd_sc_mcu7t5v0__oai32_2 A1 A2 A3 B1 B2 ZN VDD VNW VPW VSS
.ends

* Black-box entry subcircuit for gf180mcu_fd_sc_mcu7t5v0__aoi221_2 abstract view
.subckt gf180mcu_fd_sc_mcu7t5v0__aoi221_2 A1 A2 B1 B2 C ZN VDD VNW VPW VSS
.ends

* Black-box entry subcircuit for gf180mcu_fd_sc_mcu7t5v0__aoi22_4 abstract view
.subckt gf180mcu_fd_sc_mcu7t5v0__aoi22_4 A1 A2 B1 B2 ZN VDD VNW VPW VSS
.ends

* Black-box entry subcircuit for gf180mcu_fd_sc_mcu7t5v0__buf_2 abstract view
.subckt gf180mcu_fd_sc_mcu7t5v0__buf_2 I Z VDD VNW VPW VSS
.ends

* Black-box entry subcircuit for gf180mcu_fd_sc_mcu7t5v0__aoi21_2 abstract view
.subckt gf180mcu_fd_sc_mcu7t5v0__aoi21_2 A1 A2 B ZN VDD VNW VPW VSS
.ends

* Black-box entry subcircuit for gf180mcu_fd_sc_mcu7t5v0__oai221_1 abstract view
.subckt gf180mcu_fd_sc_mcu7t5v0__oai221_1 A1 A2 B1 B2 C ZN VDD VNW VPW VSS
.ends

* Black-box entry subcircuit for gf180mcu_fd_sc_mcu7t5v0__nand4_4 abstract view
.subckt gf180mcu_fd_sc_mcu7t5v0__nand4_4 A1 A2 A3 A4 ZN VDD VNW VPW VSS
.ends

* Black-box entry subcircuit for gf180mcu_fd_sc_mcu7t5v0__and4_2 abstract view
.subckt gf180mcu_fd_sc_mcu7t5v0__and4_2 A1 A2 A3 A4 Z VDD VNW VPW VSS
.ends

* Black-box entry subcircuit for gf180mcu_fd_sc_mcu7t5v0__nand3_2 abstract view
.subckt gf180mcu_fd_sc_mcu7t5v0__nand3_2 A1 A2 A3 ZN VDD VNW VPW VSS
.ends

* Black-box entry subcircuit for gf180mcu_fd_sc_mcu7t5v0__xnor3_1 abstract view
.subckt gf180mcu_fd_sc_mcu7t5v0__xnor3_1 A1 A2 A3 ZN VDD VNW VPW VSS
.ends

* Black-box entry subcircuit for gf180mcu_fd_sc_mcu7t5v0__oai31_1 abstract view
.subckt gf180mcu_fd_sc_mcu7t5v0__oai31_1 A1 A2 A3 B ZN VDD VNW VPW VSS
.ends

* Black-box entry subcircuit for gf180mcu_fd_sc_mcu7t5v0__mux2_2 abstract view
.subckt gf180mcu_fd_sc_mcu7t5v0__mux2_2 I0 I1 S Z VDD VNW VPW VSS
.ends

* Black-box entry subcircuit for gf180mcu_fd_sc_mcu7t5v0__nand4_1 abstract view
.subckt gf180mcu_fd_sc_mcu7t5v0__nand4_1 A1 A2 A3 A4 ZN VDD VNW VPW VSS
.ends

* Black-box entry subcircuit for gf180mcu_fd_sc_mcu7t5v0__inv_1 abstract view
.subckt gf180mcu_fd_sc_mcu7t5v0__inv_1 I ZN VDD VNW VPW VSS
.ends

* Black-box entry subcircuit for gf180mcu_fd_sc_mcu7t5v0__aoi22_1 abstract view
.subckt gf180mcu_fd_sc_mcu7t5v0__aoi22_1 A1 A2 B1 B2 ZN VDD VNW VPW VSS
.ends

* Black-box entry subcircuit for gf180mcu_fd_sc_mcu7t5v0__oai32_1 abstract view
.subckt gf180mcu_fd_sc_mcu7t5v0__oai32_1 A1 A2 A3 B1 B2 ZN VDD VNW VPW VSS
.ends

* Black-box entry subcircuit for gf180mcu_fd_sc_mcu7t5v0__nand4_2 abstract view
.subckt gf180mcu_fd_sc_mcu7t5v0__nand4_2 A1 A2 A3 A4 ZN VDD VNW VPW VSS
.ends

* Black-box entry subcircuit for gf180mcu_fd_sc_mcu7t5v0__clkbuf_16 abstract view
.subckt gf180mcu_fd_sc_mcu7t5v0__clkbuf_16 I Z VDD VNW VPW VSS
.ends

* Black-box entry subcircuit for gf180mcu_fd_sc_mcu7t5v0__oai22_2 abstract view
.subckt gf180mcu_fd_sc_mcu7t5v0__oai22_2 A1 A2 B1 B2 ZN VDD VNW VPW VSS
.ends

* Black-box entry subcircuit for gf180mcu_fd_sc_mcu7t5v0__or4_1 abstract view
.subckt gf180mcu_fd_sc_mcu7t5v0__or4_1 A1 A2 A3 A4 Z VDD VNW VPW VSS
.ends

* Black-box entry subcircuit for gf180mcu_fd_sc_mcu7t5v0__tiel abstract view
.subckt gf180mcu_fd_sc_mcu7t5v0__tiel ZN VDD VNW VPW VSS
.ends

* Black-box entry subcircuit for gf180mcu_fd_sc_mcu7t5v0__oai22_1 abstract view
.subckt gf180mcu_fd_sc_mcu7t5v0__oai22_1 A1 A2 B1 B2 ZN VDD VNW VPW VSS
.ends

* Black-box entry subcircuit for gf180mcu_fd_sc_mcu7t5v0__dffq_2 abstract view
.subckt gf180mcu_fd_sc_mcu7t5v0__dffq_2 D CLK Q VDD VNW VPW VSS
.ends

* Black-box entry subcircuit for gf180mcu_fd_sc_mcu7t5v0__or3_2 abstract view
.subckt gf180mcu_fd_sc_mcu7t5v0__or3_2 A1 A2 A3 Z VDD VNW VPW VSS
.ends

* Black-box entry subcircuit for gf180mcu_fd_sc_mcu7t5v0__aoi22_2 abstract view
.subckt gf180mcu_fd_sc_mcu7t5v0__aoi22_2 A1 A2 B1 B2 ZN VDD VNW VPW VSS
.ends

* Black-box entry subcircuit for gf180mcu_fd_sc_mcu7t5v0__nor4_2 abstract view
.subckt gf180mcu_fd_sc_mcu7t5v0__nor4_2 A1 A2 A3 A4 ZN VDD VNW VPW VSS
.ends

* Black-box entry subcircuit for gf180mcu_fd_sc_mcu7t5v0__oai21_4 abstract view
.subckt gf180mcu_fd_sc_mcu7t5v0__oai21_4 A1 A2 B ZN VDD VNW VPW VSS
.ends

* Black-box entry subcircuit for gf180mcu_fd_sc_mcu7t5v0__or2_2 abstract view
.subckt gf180mcu_fd_sc_mcu7t5v0__or2_2 A1 A2 Z VDD VNW VPW VSS
.ends

* Black-box entry subcircuit for gf180mcu_fd_sc_mcu7t5v0__oai33_1 abstract view
.subckt gf180mcu_fd_sc_mcu7t5v0__oai33_1 A1 A2 A3 B1 B2 B3 ZN VDD VNW VPW VSS
.ends

* Black-box entry subcircuit for gf180mcu_fd_sc_mcu7t5v0__oai31_2 abstract view
.subckt gf180mcu_fd_sc_mcu7t5v0__oai31_2 A1 A2 A3 B ZN VDD VNW VPW VSS
.ends

.subckt pcpi_exact_mul clk pcpi_insn[0] pcpi_insn[10] pcpi_insn[11] pcpi_insn[12]
+ pcpi_insn[13] pcpi_insn[14] pcpi_insn[15] pcpi_insn[16] pcpi_insn[17] pcpi_insn[18]
+ pcpi_insn[19] pcpi_insn[1] pcpi_insn[20] pcpi_insn[21] pcpi_insn[22] pcpi_insn[23]
+ pcpi_insn[24] pcpi_insn[25] pcpi_insn[26] pcpi_insn[27] pcpi_insn[28] pcpi_insn[29]
+ pcpi_insn[2] pcpi_insn[30] pcpi_insn[31] pcpi_insn[3] pcpi_insn[4] pcpi_insn[5]
+ pcpi_insn[6] pcpi_insn[7] pcpi_insn[8] pcpi_insn[9] pcpi_rd[0] pcpi_rd[10] pcpi_rd[11]
+ pcpi_rd[12] pcpi_rd[13] pcpi_rd[14] pcpi_rd[15] pcpi_rd[16] pcpi_rd[17] pcpi_rd[18]
+ pcpi_rd[19] pcpi_rd[1] pcpi_rd[20] pcpi_rd[21] pcpi_rd[22] pcpi_rd[23] pcpi_rd[24]
+ pcpi_rd[25] pcpi_rd[26] pcpi_rd[27] pcpi_rd[28] pcpi_rd[29] pcpi_rd[2] pcpi_rd[30]
+ pcpi_rd[31] pcpi_rd[3] pcpi_rd[4] pcpi_rd[5] pcpi_rd[6] pcpi_rd[7] pcpi_rd[8] pcpi_rd[9]
+ pcpi_ready pcpi_rs1[0] pcpi_rs1[10] pcpi_rs1[11] pcpi_rs1[12] pcpi_rs1[13] pcpi_rs1[14]
+ pcpi_rs1[15] pcpi_rs1[16] pcpi_rs1[17] pcpi_rs1[18] pcpi_rs1[19] pcpi_rs1[1] pcpi_rs1[20]
+ pcpi_rs1[21] pcpi_rs1[22] pcpi_rs1[23] pcpi_rs1[24] pcpi_rs1[25] pcpi_rs1[26] pcpi_rs1[27]
+ pcpi_rs1[28] pcpi_rs1[29] pcpi_rs1[2] pcpi_rs1[30] pcpi_rs1[31] pcpi_rs1[3] pcpi_rs1[4]
+ pcpi_rs1[5] pcpi_rs1[6] pcpi_rs1[7] pcpi_rs1[8] pcpi_rs1[9] pcpi_rs2[0] pcpi_rs2[10]
+ pcpi_rs2[11] pcpi_rs2[12] pcpi_rs2[13] pcpi_rs2[14] pcpi_rs2[15] pcpi_rs2[16] pcpi_rs2[17]
+ pcpi_rs2[18] pcpi_rs2[19] pcpi_rs2[1] pcpi_rs2[20] pcpi_rs2[21] pcpi_rs2[22] pcpi_rs2[23]
+ pcpi_rs2[24] pcpi_rs2[25] pcpi_rs2[26] pcpi_rs2[27] pcpi_rs2[28] pcpi_rs2[29] pcpi_rs2[2]
+ pcpi_rs2[30] pcpi_rs2[31] pcpi_rs2[3] pcpi_rs2[4] pcpi_rs2[5] pcpi_rs2[6] pcpi_rs2[7]
+ pcpi_rs2[8] pcpi_rs2[9] pcpi_valid pcpi_wait pcpi_wr resetn vdd vss
X_3155_ _0556_ _0557_ _0560_ _0561_ vdd vdd vss vss gf180mcu_fd_sc_mcu7t5v0__xor3_2
X_2037_ _1194_ _1195_ _1196_ vdd vdd vss vss gf180mcu_fd_sc_mcu7t5v0__nand2_1
X_2106_ _1260_ _1262_ _1263_ _0805_ _1264_ vdd vdd vss vss gf180mcu_fd_sc_mcu7t5v0__oai211_1
X_3086_ _0469_ _0471_ _0489_ vdd vdd vss vss gf180mcu_fd_sc_mcu7t5v0__and2_1
XFILLER_0_9_422 vdd vdd vss vss gf180mcu_fd_sc_mcu7t5v0__fillcap_4
X_2939_ _0300_ _0301_ _0345_ _0347_ vdd vdd vss vss gf180mcu_fd_sc_mcu7t5v0__nor3_1
XANTENNA_input73_I pcpi_rs2[30] vdd vdd vss vss gf180mcu_fd_sc_mcu7t5v0__antenna
XFILLER_0_40_280 vdd vdd vss vss gf180mcu_fd_sc_mcu7t5v0__fill_2
XFILLER_0_4_160 vdd vdd vss vss gf180mcu_fd_sc_mcu7t5v0__fillcap_4
XTAP_TAPCELL_ROW_43_448 vdd vss gf180mcu_fd_sc_mcu7t5v0__filltie
XFILLER_0_67_188 vdd vdd vss vss gf180mcu_fd_sc_mcu7t5v0__fillcap_8
XFILLER_0_55_339 vdd vdd vss vss gf180mcu_fd_sc_mcu7t5v0__fill_1
XANTENNA__1996__A2 net2 vdd vdd vss vss gf180mcu_fd_sc_mcu7t5v0__antenna
XANTENNA__1920__A2 _1079_ vdd vdd vss vss gf180mcu_fd_sc_mcu7t5v0__antenna
XFILLER_0_58_177 vdd vdd vss vss gf180mcu_fd_sc_mcu7t5v0__fill_2
XANTENNA__3109__I net71 vdd vdd vss vss gf180mcu_fd_sc_mcu7t5v0__antenna
X_2655_ net88 _0033_ _0066_ vdd vdd vss vss gf180mcu_fd_sc_mcu7t5v0__nand2_1
X_2724_ _0132_ net60 _0133_ vdd vdd vss vss gf180mcu_fd_sc_mcu7t5v0__nand2_1
XFILLER_0_10_420 vdd vdd vss vss gf180mcu_fd_sc_mcu7t5v0__fill_1
XFILLER_0_14_247 vdd vdd vss vss gf180mcu_fd_sc_mcu7t5v0__fill_2
X_3207_ _0588_ _0574_ _0586_ _0617_ vdd vdd vss vss gf180mcu_fd_sc_mcu7t5v0__aoi21_1
XFILLER_0_59_4 vdd vdd vss vss gf180mcu_fd_sc_mcu7t5v0__fill_1
X_2586_ _1698_ _1734_ _0011_ vdd vdd vss vss gf180mcu_fd_sc_mcu7t5v0__nand2_1
X_3138_ _0536_ _0537_ _0541_ _0542_ vdd vdd vss vss gf180mcu_fd_sc_mcu7t5v0__xnor3_2
XFILLER_0_49_133 vdd vdd vss vss gf180mcu_fd_sc_mcu7t5v0__fill_1
X_3069_ _0468_ _0472_ _0473_ vdd vdd vss vss gf180mcu_fd_sc_mcu7t5v0__xor2_1
XTAP_TAPCELL_ROW_40_429 vdd vss gf180mcu_fd_sc_mcu7t5v0__filltie
XFILLER_0_60_397 vdd vdd vss vss gf180mcu_fd_sc_mcu7t5v0__fillcap_4
XTAP_TAPCELL_ROW_56_540 vdd vss gf180mcu_fd_sc_mcu7t5v0__filltie
XTAP_TAPCELL_ROW_5_184 vdd vss gf180mcu_fd_sc_mcu7t5v0__filltie
XFILLER_0_55_136 vdd vdd vss vss gf180mcu_fd_sc_mcu7t5v0__fillcap_4
XFILLER_0_28_339 vdd vdd vss vss gf180mcu_fd_sc_mcu7t5v0__fill_1
XFILLER_0_28_317 vdd vdd vss vss gf180mcu_fd_sc_mcu7t5v0__fill_2
XFILLER_0_36_350 vdd vdd vss vss gf180mcu_fd_sc_mcu7t5v0__fillcap_32
XFILLER_0_3_406 vdd vdd vss vss gf180mcu_fd_sc_mcu7t5v0__fill_2
X_2440_ _1375_ _1592_ vdd vdd vss vss gf180mcu_fd_sc_mcu7t5v0__buf_1
X_2371_ _1522_ _1515_ _1523_ vdd vdd vss vss gf180mcu_fd_sc_mcu7t5v0__nand2_1
XFILLER_0_61_139 vdd vdd vss vss gf180mcu_fd_sc_mcu7t5v0__fill_1
XFILLER_0_42_331 vdd vdd vss vss gf180mcu_fd_sc_mcu7t5v0__fill_2
XFILLER_0_6_200 vdd vdd vss vss gf180mcu_fd_sc_mcu7t5v0__fill_1
XFILLER_0_6_255 vdd vdd vss vss gf180mcu_fd_sc_mcu7t5v0__fillcap_4
XFILLER_0_19_339 vdd vdd vss vss gf180mcu_fd_sc_mcu7t5v0__fill_2
XFILLER_0_64_2 vdd vdd vss vss gf180mcu_fd_sc_mcu7t5v0__fillcap_32
X_2707_ _0115_ _0096_ _0106_ _0116_ vdd vdd vss vss gf180mcu_fd_sc_mcu7t5v0__nor3_2
X_2569_ _1674_ _1667_ _1680_ _1718_ vdd vdd vss vss gf180mcu_fd_sc_mcu7t5v0__or3_1
X_2638_ _1495_ _1496_ _0050_ vdd vdd vss vss gf180mcu_fd_sc_mcu7t5v0__xor2_1
XANTENNA_input36_I pcpi_rs1[26] vdd vdd vss vss gf180mcu_fd_sc_mcu7t5v0__antenna
XFILLER_0_33_375 vdd vdd vss vss gf180mcu_fd_sc_mcu7t5v0__fillcap_8
XANTENNA__3325__B2 _0051_ vdd vdd vss vss gf180mcu_fd_sc_mcu7t5v0__antenna
XFILLER_0_29_28 vdd vdd vss vss gf180mcu_fd_sc_mcu7t5v0__fill_2
X_1940_ _1018_ _1100_ vdd vdd vss vss gf180mcu_fd_sc_mcu7t5v0__clkbuf_1
X_1871_ _1023_ _1008_ _1030_ _1031_ vdd vdd vss vss gf180mcu_fd_sc_mcu7t5v0__aoi21_1
XFILLER_0_28_169 vdd vdd vss vss gf180mcu_fd_sc_mcu7t5v0__fill_2
XFILLER_0_28_103 vdd vdd vss vss gf180mcu_fd_sc_mcu7t5v0__fill_2
XFILLER_0_9_38 vdd vdd vss vss gf180mcu_fd_sc_mcu7t5v0__fill_1
XTAP_TAPCELL_ROW_16_256 vdd vss gf180mcu_fd_sc_mcu7t5v0__filltie
X_3472_ _0878_ _0883_ _0905_ vdd vdd vss vss gf180mcu_fd_sc_mcu7t5v0__xor2_1
X_3541_ _0006_ clknet_2_3__leaf_clk net111 vdd vdd vss vss gf180mcu_fd_sc_mcu7t5v0__dffq_1
XFILLER_0_3_203 vdd vdd vss vss gf180mcu_fd_sc_mcu7t5v0__fillcap_4
X_2423_ _1569_ _1573_ _1574_ _1575_ vdd vdd vss vss gf180mcu_fd_sc_mcu7t5v0__xnor3_2
XTAP_TAPCELL_ROW_67_624 vdd vss gf180mcu_fd_sc_mcu7t5v0__filltie
XTAP_TAPCELL_ROW_67_613 vdd vss gf180mcu_fd_sc_mcu7t5v0__filltie
X_2285_ _1436_ _1437_ vdd vdd vss vss gf180mcu_fd_sc_mcu7t5v0__clkbuf_1
X_2354_ _1462_ _1501_ _1505_ _1488_ _1460_ _1506_ vdd vdd vss vss gf180mcu_fd_sc_mcu7t5v0__oai32_4
XFILLER_0_19_72 vdd vdd vss vss gf180mcu_fd_sc_mcu7t5v0__fillcap_4
XFILLER_0_19_125 vdd vdd vss vss gf180mcu_fd_sc_mcu7t5v0__fill_2
XFILLER_0_62_415 vdd vdd vss vss gf180mcu_fd_sc_mcu7t5v0__fill_1
XFILLER_0_42_161 vdd vdd vss vss gf180mcu_fd_sc_mcu7t5v0__fill_1
XFILLER_0_42_183 vdd vdd vss vss gf180mcu_fd_sc_mcu7t5v0__fillcap_4
XFILLER_0_65_231 vdd vdd vss vss gf180mcu_fd_sc_mcu7t5v0__fill_2
XFILLER_0_65_220 vdd vdd vss vss gf180mcu_fd_sc_mcu7t5v0__fill_1
XFILLER_0_53_404 vdd vdd vss vss gf180mcu_fd_sc_mcu7t5v0__fillcap_8
XFILLER_0_38_423 vdd vdd vss vss gf180mcu_fd_sc_mcu7t5v0__fill_2
XFILLER_0_31_18 vdd vdd vss vss gf180mcu_fd_sc_mcu7t5v0__fill_2
XFILLER_0_25_139 vdd vdd vss vss gf180mcu_fd_sc_mcu7t5v0__fill_1
XTAP_TAPCELL_ROW_13_237 vdd vss gf180mcu_fd_sc_mcu7t5v0__filltie
XFILLER_0_61_492 vdd vdd vss vss gf180mcu_fd_sc_mcu7t5v0__fillcap_16
XFILLER_0_33_161 vdd vdd vss vss gf180mcu_fd_sc_mcu7t5v0__fill_1
XFILLER_0_21_345 vdd vdd vss vss gf180mcu_fd_sc_mcu7t5v0__fill_1
XFILLER_0_21_323 vdd vdd vss vss gf180mcu_fd_sc_mcu7t5v0__fill_2
XTAP_TAPCELL_ROW_21_292 vdd vss gf180mcu_fd_sc_mcu7t5v0__filltie
X_2070_ _1186_ _1201_ _1228_ vdd vdd vss vss gf180mcu_fd_sc_mcu7t5v0__xor2_1
XFILLER_0_29_401 vdd vdd vss vss gf180mcu_fd_sc_mcu7t5v0__fillcap_8
XPHY_EDGE_ROW_28_Left_96 vdd vss gf180mcu_fd_sc_mcu7t5v0__endcap
X_2972_ _0337_ _0340_ _0379_ vdd vdd vss vss gf180mcu_fd_sc_mcu7t5v0__xor2_1
X_1923_ _1078_ _1082_ _1083_ vdd vdd vss vss gf180mcu_fd_sc_mcu7t5v0__xor2_2
X_1854_ _0990_ _1014_ vdd vdd vss vss gf180mcu_fd_sc_mcu7t5v0__clkinv_1
X_1785_ _0696_ _0707_ vdd vdd vss vss gf180mcu_fd_sc_mcu7t5v0__clkbuf_2
XFILLER_0_29_467 vdd vdd vss vss gf180mcu_fd_sc_mcu7t5v0__fill_1
XFILLER_0_24_172 vdd vdd vss vss gf180mcu_fd_sc_mcu7t5v0__fill_2
X_3455_ _0863_ _0851_ _0886_ _0887_ vdd vdd vss vss gf180mcu_fd_sc_mcu7t5v0__nor3_1
X_3524_ _0956_ _0957_ _0959_ _1762_ _0960_ vdd vdd vss vss gf180mcu_fd_sc_mcu7t5v0__aoi211_1
X_3386_ _1595_ _0812_ vdd vdd vss vss gf180mcu_fd_sc_mcu7t5v0__buf_1
X_2406_ _1506_ _1530_ _1557_ _1558_ vdd vdd vss vss gf180mcu_fd_sc_mcu7t5v0__aoi21_4
X_2199_ _1335_ _1351_ _1352_ _1353_ vdd vdd vss vss gf180mcu_fd_sc_mcu7t5v0__oai21_2
XFILLER_0_46_70 vdd vdd vss vss gf180mcu_fd_sc_mcu7t5v0__fill_2
XFILLER_0_27_2 vdd vdd vss vss gf180mcu_fd_sc_mcu7t5v0__fill_2
X_2268_ _1410_ _1419_ _1420_ vdd vdd vss vss gf180mcu_fd_sc_mcu7t5v0__nor2_1
X_2337_ _1456_ _1460_ _1488_ _1489_ vdd vdd vss vss gf180mcu_fd_sc_mcu7t5v0__xor3_2
XFILLER_0_47_297 vdd vdd vss vss gf180mcu_fd_sc_mcu7t5v0__fillcap_4
XFILLER_0_1_72 vdd vdd vss vss gf180mcu_fd_sc_mcu7t5v0__fillcap_64
XFILLER_0_62_234 vdd vdd vss vss gf180mcu_fd_sc_mcu7t5v0__fillcap_8
XFILLER_0_43_492 vdd vdd vss vss gf180mcu_fd_sc_mcu7t5v0__fillcap_8
XFILLER_0_30_164 vdd vdd vss vss gf180mcu_fd_sc_mcu7t5v0__fill_2
XFILLER_0_30_153 vdd vdd vss vss gf180mcu_fd_sc_mcu7t5v0__fill_1
XTAP_TAPCELL_ROW_10_218 vdd vss gf180mcu_fd_sc_mcu7t5v0__filltie
XFILLER_0_15_150 vdd vdd vss vss gf180mcu_fd_sc_mcu7t5v0__fillcap_4
XFILLER_0_53_278 vdd vdd vss vss gf180mcu_fd_sc_mcu7t5v0__fill_2
XFILLER_0_53_212 vdd vdd vss vss gf180mcu_fd_sc_mcu7t5v0__fillcap_8
XFILLER_0_53_201 vdd vdd vss vss gf180mcu_fd_sc_mcu7t5v0__fillcap_8
XFILLER_0_26_459 vdd vdd vss vss gf180mcu_fd_sc_mcu7t5v0__fill_1
XFILLER_0_67_36 vdd vdd vss vss gf180mcu_fd_sc_mcu7t5v0__fillcap_32
X_3240_ _0651_ _0653_ _0643_ _0654_ vdd vdd vss vss gf180mcu_fd_sc_mcu7t5v0__aoi21_1
X_2122_ _1277_ _1275_ _1278_ _1279_ vdd vdd vss vss gf180mcu_fd_sc_mcu7t5v0__nand3_1
X_3171_ _0555_ _0561_ _0578_ _0579_ vdd vdd vss vss gf180mcu_fd_sc_mcu7t5v0__aoi21_4
X_2053_ _1173_ _1203_ _1211_ vdd vdd vss vss gf180mcu_fd_sc_mcu7t5v0__xor2_1
XTAP_TAPCELL_ROW_49_487 vdd vss gf180mcu_fd_sc_mcu7t5v0__filltie
X_2955_ _0312_ _0306_ _0343_ _0362_ vdd vdd vss vss gf180mcu_fd_sc_mcu7t5v0__or3_1
X_1906_ _1019_ _1064_ _1065_ _1066_ vdd vdd vss vss gf180mcu_fd_sc_mcu7t5v0__nor3_1
X_1837_ _0815_ _0992_ _0996_ _0987_ _0685_ _0954_ _0997_ vdd vdd vss vss gf180mcu_fd_sc_mcu7t5v0__oai33_4
X_3507_ _1371_ _0941_ _0942_ vdd vdd vss vss gf180mcu_fd_sc_mcu7t5v0__nor2_1
X_1768_ net1 net5 _0521_ vdd vdd vss vss gf180mcu_fd_sc_mcu7t5v0__nand2_1
X_2886_ _1592_ _1570_ _1596_ _0295_ vdd vdd vss vss gf180mcu_fd_sc_mcu7t5v0__aoi21_1
XFILLER_0_4_397 vdd vdd vss vss gf180mcu_fd_sc_mcu7t5v0__fillcap_4
XFILLER_0_12_153 vdd vdd vss vss gf180mcu_fd_sc_mcu7t5v0__fill_1
X_3369_ _0791_ _0793_ _0795_ vdd vdd vss vss gf180mcu_fd_sc_mcu7t5v0__nor2_1
X_3438_ _0822_ _0865_ _0866_ _0867_ _0821_ _0868_ vdd vdd vss vss gf180mcu_fd_sc_mcu7t5v0__oai32_4
XFILLER_0_40_495 vdd vdd vss vss gf180mcu_fd_sc_mcu7t5v0__fillcap_8
XANTENNA__2497__A1 net114 vdd vdd vss vss gf180mcu_fd_sc_mcu7t5v0__antenna
XTAP_TAPCELL_ROW_23_310 vdd vss gf180mcu_fd_sc_mcu7t5v0__filltie
XFILLER_0_23_418 vdd vdd vss vss gf180mcu_fd_sc_mcu7t5v0__fill_2
XFILLER_0_16_470 vdd vdd vss vss gf180mcu_fd_sc_mcu7t5v0__fill_1
XFILLER_0_31_440 vdd vdd vss vss gf180mcu_fd_sc_mcu7t5v0__fill_1
XANTENNA__2724__A2 net60 vdd vdd vss vss gf180mcu_fd_sc_mcu7t5v0__antenna
Xoutput86 net86 pcpi_rd[12] vdd vdd vss vss gf180mcu_fd_sc_mcu7t5v0__buf_8
Xoutput97 net97 pcpi_rd[22] vdd vdd vss vss gf180mcu_fd_sc_mcu7t5v0__buf_8
XTAP_TAPCELL_ROW_46_468 vdd vss gf180mcu_fd_sc_mcu7t5v0__filltie
XFILLER_0_41_248 vdd vdd vss vss gf180mcu_fd_sc_mcu7t5v0__fill_2
XANTENNA__3554__CLK clknet_2_2__leaf_clk vdd vdd vss vss gf180mcu_fd_sc_mcu7t5v0__antenna
X_2671_ net62 _0080_ vdd vdd vss vss gf180mcu_fd_sc_mcu7t5v0__clkbuf_2
XFILLER_0_22_451 vdd vdd vss vss gf180mcu_fd_sc_mcu7t5v0__fillcap_4
XFILLER_0_5_117 vdd vdd vss vss gf180mcu_fd_sc_mcu7t5v0__fillcap_4
X_2740_ _0148_ _0136_ _0149_ vdd vdd vss vss gf180mcu_fd_sc_mcu7t5v0__and2_1
X_3223_ _0509_ _0634_ _0635_ vdd vdd vss vss gf180mcu_fd_sc_mcu7t5v0__or2_1
XFILLER_0_22_473 vdd vdd vss vss gf180mcu_fd_sc_mcu7t5v0__fillcap_8
X_3154_ _0558_ _0559_ _0560_ vdd vdd vss vss gf180mcu_fd_sc_mcu7t5v0__xor2_1
X_2036_ _1126_ net47 _1195_ vdd vdd vss vss gf180mcu_fd_sc_mcu7t5v0__nand2_1
XTAP_TAPCELL_ROW_37_402 vdd vss gf180mcu_fd_sc_mcu7t5v0__filltie
X_2105_ _0772_ _0783_ _0794_ _1263_ vdd vdd vss vss gf180mcu_fd_sc_mcu7t5v0__oai21_1
X_3085_ _0401_ _0447_ _0488_ vdd vdd vss vss gf180mcu_fd_sc_mcu7t5v0__nand2_1
X_2938_ _0300_ _0301_ _0345_ _0346_ vdd vdd vss vss gf180mcu_fd_sc_mcu7t5v0__oai21_2
XFILLER_0_9_489 vdd vdd vss vss gf180mcu_fd_sc_mcu7t5v0__fill_1
XFILLER_0_17_256 vdd vdd vss vss gf180mcu_fd_sc_mcu7t5v0__fillcap_4
XFILLER_0_17_278 vdd vdd vss vss gf180mcu_fd_sc_mcu7t5v0__fill_2
XANTENNA_input66_I pcpi_rs2[24] vdd vdd vss vss gf180mcu_fd_sc_mcu7t5v0__antenna
XFILLER_0_40_270 vdd vdd vss vss gf180mcu_fd_sc_mcu7t5v0__fill_2
XANTENNA__2006__I1 net83 vdd vdd vss vss gf180mcu_fd_sc_mcu7t5v0__antenna
XFILLER_0_4_172 vdd vdd vss vss gf180mcu_fd_sc_mcu7t5v0__fill_2
X_2869_ _0228_ _0276_ _0277_ _0278_ vdd vdd vss vss gf180mcu_fd_sc_mcu7t5v0__nor3_1
XPHY_EDGE_ROW_15_Left_83 vdd vss gf180mcu_fd_sc_mcu7t5v0__endcap
XTAP_TAPCELL_ROW_43_449 vdd vss gf180mcu_fd_sc_mcu7t5v0__filltie
XANTENNA__2945__A2 _1644_ vdd vdd vss vss gf180mcu_fd_sc_mcu7t5v0__antenna
XFILLER_0_64_37 vdd vdd vss vss gf180mcu_fd_sc_mcu7t5v0__fillcap_64
XTAP_TAPCELL_ROW_59_560 vdd vss gf180mcu_fd_sc_mcu7t5v0__filltie
XFILLER_0_58_101 vdd vdd vss vss gf180mcu_fd_sc_mcu7t5v0__fillcap_4
X_2723_ _0091_ _0132_ vdd vdd vss vss gf180mcu_fd_sc_mcu7t5v0__clkbuf_1
XFILLER_0_54_395 vdd vdd vss vss gf180mcu_fd_sc_mcu7t5v0__fill_1
X_2585_ active _1732_ _1733_ _1734_ vdd vdd vss vss gf180mcu_fd_sc_mcu7t5v0__nand3_1
X_2654_ _1765_ _1357_ _1766_ _0065_ vdd vdd vss vss gf180mcu_fd_sc_mcu7t5v0__oai21_1
XFILLER_0_1_142 vdd vdd vss vss gf180mcu_fd_sc_mcu7t5v0__fillcap_64
XFILLER_0_10_454 vdd vdd vss vss gf180mcu_fd_sc_mcu7t5v0__fill_1
X_3137_ _0538_ _0540_ _0541_ vdd vdd vss vss gf180mcu_fd_sc_mcu7t5v0__nor2_2
X_3206_ _0580_ _0515_ _0616_ vdd vdd vss vss gf180mcu_fd_sc_mcu7t5v0__nand2_1
X_2019_ _0641_ _1119_ _1178_ vdd vdd vss vss gf180mcu_fd_sc_mcu7t5v0__nand2_1
XFILLER_0_9_242 vdd vdd vss vss gf180mcu_fd_sc_mcu7t5v0__fill_2
X_3068_ _0469_ _0471_ _0472_ vdd vdd vss vss gf180mcu_fd_sc_mcu7t5v0__xor2_1
XFILLER_0_5_492 vdd vdd vss vss gf180mcu_fd_sc_mcu7t5v0__fillcap_16
XFILLER_0_60_387 vdd vdd vss vss gf180mcu_fd_sc_mcu7t5v0__fill_1
XPHY_EDGE_ROW_0_Left_68 vdd vss gf180mcu_fd_sc_mcu7t5v0__endcap
XFILLER_0_13_270 vdd vdd vss vss gf180mcu_fd_sc_mcu7t5v0__fillcap_4
XTAP_TAPCELL_ROW_56_541 vdd vss gf180mcu_fd_sc_mcu7t5v0__filltie
XFILLER_0_55_159 vdd vdd vss vss gf180mcu_fd_sc_mcu7t5v0__fill_1
XFILLER_0_55_104 vdd vdd vss vss gf180mcu_fd_sc_mcu7t5v0__fill_1
XFILLER_0_28_329 vdd vdd vss vss gf180mcu_fd_sc_mcu7t5v0__fill_2
XFILLER_0_59_15 vdd vdd vss vss gf180mcu_fd_sc_mcu7t5v0__fill_2
XFILLER_0_51_354 vdd vdd vss vss gf180mcu_fd_sc_mcu7t5v0__fill_1
XFILLER_0_36_384 vdd vdd vss vss gf180mcu_fd_sc_mcu7t5v0__fill_1
XFILLER_0_3_418 vdd vdd vss vss gf180mcu_fd_sc_mcu7t5v0__fill_2
XFILLER_0_11_207 vdd vdd vss vss gf180mcu_fd_sc_mcu7t5v0__fill_2
X_2370_ _1482_ _1483_ _1522_ vdd vdd vss vss gf180mcu_fd_sc_mcu7t5v0__or2_1
XTAP_TAPCELL_ROW_19_276 vdd vss gf180mcu_fd_sc_mcu7t5v0__filltie
XTAP_TAPCELL_ROW_62_577 vdd vss gf180mcu_fd_sc_mcu7t5v0__filltie
XFILLER_0_42_365 vdd vdd vss vss gf180mcu_fd_sc_mcu7t5v0__fillcap_4
XFILLER_0_42_343 vdd vdd vss vss gf180mcu_fd_sc_mcu7t5v0__fill_1
XFILLER_0_27_340 vdd vdd vss vss gf180mcu_fd_sc_mcu7t5v0__fill_2
X_2706_ _0085_ _0115_ vdd vdd vss vss gf180mcu_fd_sc_mcu7t5v0__buf_1
XFILLER_0_57_2 vdd vdd vss vss gf180mcu_fd_sc_mcu7t5v0__fill_1
XFILLER_0_42_387 vdd vdd vss vss gf180mcu_fd_sc_mcu7t5v0__fillcap_4
X_2637_ _0036_ _0048_ _0049_ vdd vdd vss vss gf180mcu_fd_sc_mcu7t5v0__xor2_1
X_2499_ _1607_ _1640_ _1649_ vdd vdd vss vss gf180mcu_fd_sc_mcu7t5v0__nand2_1
XPHY_EDGE_ROW_12_Right_12 vdd vss gf180mcu_fd_sc_mcu7t5v0__endcap
X_2568_ _1674_ _1667_ _1680_ _1717_ vdd vdd vss vss gf180mcu_fd_sc_mcu7t5v0__oai21_1
XANTENNA_input29_I pcpi_rs1[1] vdd vdd vss vss gf180mcu_fd_sc_mcu7t5v0__antenna
XPHY_EDGE_ROW_21_Right_21 vdd vss gf180mcu_fd_sc_mcu7t5v0__endcap
XFILLER_0_52_107 vdd vdd vss vss gf180mcu_fd_sc_mcu7t5v0__fill_1
XPHY_EDGE_ROW_36_Left_104 vdd vss gf180mcu_fd_sc_mcu7t5v0__endcap
XFILLER_0_33_343 vdd vdd vss vss gf180mcu_fd_sc_mcu7t5v0__fill_1
XPHY_EDGE_ROW_30_Right_30 vdd vss gf180mcu_fd_sc_mcu7t5v0__endcap
XFILLER_0_21_505 vdd vdd vss vss gf180mcu_fd_sc_mcu7t5v0__fill_2
XFILLER_0_18_384 vdd vdd vss vss gf180mcu_fd_sc_mcu7t5v0__fill_1
XPHY_EDGE_ROW_45_Left_113 vdd vss gf180mcu_fd_sc_mcu7t5v0__endcap
XFILLER_0_61_38 vdd vdd vss vss gf180mcu_fd_sc_mcu7t5v0__fillcap_8
XTAP_TAPCELL_ROW_16_257 vdd vss gf180mcu_fd_sc_mcu7t5v0__filltie
XPHY_EDGE_ROW_54_Left_122 vdd vss gf180mcu_fd_sc_mcu7t5v0__endcap
X_1870_ _1002_ _1007_ _1030_ vdd vdd vss vss gf180mcu_fd_sc_mcu7t5v0__nor2_1
X_3540_ _0005_ clknet_2_1__leaf_clk net110 vdd vdd vss vss gf180mcu_fd_sc_mcu7t5v0__dffq_1
XFILLER_0_36_192 vdd vdd vss vss gf180mcu_fd_sc_mcu7t5v0__fill_2
XFILLER_0_28_126 vdd vdd vss vss gf180mcu_fd_sc_mcu7t5v0__fill_2
XFILLER_0_9_28 vdd vdd vss vss gf180mcu_fd_sc_mcu7t5v0__fillcap_8
XPHY_EDGE_ROW_63_Left_131 vdd vss gf180mcu_fd_sc_mcu7t5v0__endcap
X_3471_ _0817_ _0874_ _0904_ vdd vdd vss vss gf180mcu_fd_sc_mcu7t5v0__nand2_1
X_2422_ _1481_ _1571_ _1574_ vdd vdd vss vss gf180mcu_fd_sc_mcu7t5v0__nand2_1
XFILLER_0_10_42 vdd vdd vss vss gf180mcu_fd_sc_mcu7t5v0__fill_1
X_2353_ _1471_ _1472_ _1504_ _1505_ vdd vdd vss vss gf180mcu_fd_sc_mcu7t5v0__nor3_2
XTAP_TAPCELL_ROW_67_625 vdd vss gf180mcu_fd_sc_mcu7t5v0__filltie
XTAP_TAPCELL_ROW_67_614 vdd vss gf180mcu_fd_sc_mcu7t5v0__filltie
X_2284_ _1410_ _1419_ _1424_ _1436_ vdd vdd vss vss gf180mcu_fd_sc_mcu7t5v0__oai21_2
XFILLER_0_47_457 vdd vdd vss vss gf180mcu_fd_sc_mcu7t5v0__fill_2
XFILLER_0_34_107 vdd vdd vss vss gf180mcu_fd_sc_mcu7t5v0__fillcap_8
XFILLER_0_51_82 vdd vdd vss vss gf180mcu_fd_sc_mcu7t5v0__fill_1
X_1999_ net4 _1158_ net3 _1159_ vdd vdd vss vss gf180mcu_fd_sc_mcu7t5v0__nor3_2
XFILLER_0_30_313 vdd vdd vss vss gf180mcu_fd_sc_mcu7t5v0__fill_2
XFILLER_0_27_170 vdd vdd vss vss gf180mcu_fd_sc_mcu7t5v0__fill_1
XFILLER_0_65_243 vdd vdd vss vss gf180mcu_fd_sc_mcu7t5v0__fill_2