* NGSPICE file created from simpleuart.ext - technology: gf180mcuD

* Black-box entry subcircuit for gf180mcu_fd_sc_mcu7t5v0__fillcap_4 abstract view
.subckt gf180mcu_fd_sc_mcu7t5v0__fillcap_4 VDD VNW VPW VSS
.ends

* Black-box entry subcircuit for gf180mcu_fd_sc_mcu7t5v0__filltie abstract view
.subckt gf180mcu_fd_sc_mcu7t5v0__filltie VDD VSS
.ends

* Black-box entry subcircuit for gf180mcu_fd_sc_mcu7t5v0__antenna abstract view
.subckt gf180mcu_fd_sc_mcu7t5v0__antenna I VDD VNW VPW VSS
.ends

* Black-box entry subcircuit for gf180mcu_fd_sc_mcu7t5v0__fill_2 abstract view
.subckt gf180mcu_fd_sc_mcu7t5v0__fill_2 VDD VNW VPW VSS
.ends

* Black-box entry subcircuit for gf180mcu_fd_sc_mcu7t5v0__aoi22_1 abstract view
.subckt gf180mcu_fd_sc_mcu7t5v0__aoi22_1 A1 A2 B1 B2 ZN VDD VNW VPW VSS
.ends

* Black-box entry subcircuit for gf180mcu_fd_sc_mcu7t5v0__oai211_1 abstract view
.subckt gf180mcu_fd_sc_mcu7t5v0__oai211_1 A1 A2 B C ZN VDD VNW VPW VSS
.ends

* Black-box entry subcircuit for gf180mcu_fd_sc_mcu7t5v0__nor3_1 abstract view
.subckt gf180mcu_fd_sc_mcu7t5v0__nor3_1 A1 A2 A3 ZN VDD VNW VPW VSS
.ends

* Black-box entry subcircuit for gf180mcu_fd_sc_mcu7t5v0__fill_1 abstract view
.subckt gf180mcu_fd_sc_mcu7t5v0__fill_1 VDD VNW VPW VSS
.ends

* Black-box entry subcircuit for gf180mcu_fd_sc_mcu7t5v0__clkbuf_1 abstract view
.subckt gf180mcu_fd_sc_mcu7t5v0__clkbuf_1 I Z VDD VNW VPW VSS
.ends

* Black-box entry subcircuit for gf180mcu_fd_sc_mcu7t5v0__aoi21_1 abstract view
.subckt gf180mcu_fd_sc_mcu7t5v0__aoi21_1 A1 A2 B ZN VDD VNW VPW VSS
.ends

* Black-box entry subcircuit for gf180mcu_fd_sc_mcu7t5v0__nand2_1 abstract view
.subckt gf180mcu_fd_sc_mcu7t5v0__nand2_1 A1 A2 ZN VDD VNW VPW VSS
.ends

* Black-box entry subcircuit for gf180mcu_fd_sc_mcu7t5v0__clkbuf_2 abstract view
.subckt gf180mcu_fd_sc_mcu7t5v0__clkbuf_2 I Z VDD VNW VPW VSS
.ends

* Black-box entry subcircuit for gf180mcu_fd_sc_mcu7t5v0__oai21_1 abstract view
.subckt gf180mcu_fd_sc_mcu7t5v0__oai21_1 A1 A2 B ZN VDD VNW VPW VSS
.ends

* Black-box entry subcircuit for gf180mcu_fd_sc_mcu7t5v0__tieh abstract view
.subckt gf180mcu_fd_sc_mcu7t5v0__tieh Z VDD VNW VPW VSS
.ends

* Black-box entry subcircuit for gf180mcu_fd_sc_mcu7t5v0__nor2_1 abstract view
.subckt gf180mcu_fd_sc_mcu7t5v0__nor2_1 A1 A2 ZN VDD VNW VPW VSS
.ends

* Black-box entry subcircuit for gf180mcu_fd_sc_mcu7t5v0__clkinv_1 abstract view
.subckt gf180mcu_fd_sc_mcu7t5v0__clkinv_1 I ZN VDD VNW VPW VSS
.ends

* Black-box entry subcircuit for gf180mcu_fd_sc_mcu7t5v0__clkbuf_8 abstract view
.subckt gf180mcu_fd_sc_mcu7t5v0__clkbuf_8 I Z VDD VNW VPW VSS
.ends

* Black-box entry subcircuit for gf180mcu_fd_sc_mcu7t5v0__dffq_1 abstract view
.subckt gf180mcu_fd_sc_mcu7t5v0__dffq_1 D CLK Q VDD VNW VPW VSS
.ends

* Black-box entry subcircuit for gf180mcu_fd_sc_mcu7t5v0__fillcap_8 abstract view
.subckt gf180mcu_fd_sc_mcu7t5v0__fillcap_8 VDD VNW VPW VSS
.ends

* Black-box entry subcircuit for gf180mcu_fd_sc_mcu7t5v0__inv_1 abstract view
.subckt gf180mcu_fd_sc_mcu7t5v0__inv_1 I ZN VDD VNW VPW VSS
.ends

* Black-box entry subcircuit for gf180mcu_fd_sc_mcu7t5v0__buf_1 abstract view
.subckt gf180mcu_fd_sc_mcu7t5v0__buf_1 I Z VDD VNW VPW VSS
.ends

* Black-box entry subcircuit for gf180mcu_fd_sc_mcu7t5v0__aoi22_2 abstract view
.subckt gf180mcu_fd_sc_mcu7t5v0__aoi22_2 A1 A2 B1 B2 ZN VDD VNW VPW VSS
.ends

* Black-box entry subcircuit for gf180mcu_fd_sc_mcu7t5v0__and3_1 abstract view
.subckt gf180mcu_fd_sc_mcu7t5v0__and3_1 A1 A2 A3 Z VDD VNW VPW VSS
.ends

* Black-box entry subcircuit for gf180mcu_fd_sc_mcu7t5v0__buf_8 abstract view
.subckt gf180mcu_fd_sc_mcu7t5v0__buf_8 I Z VDD VNW VPW VSS
.ends

* Black-box entry subcircuit for gf180mcu_fd_sc_mcu7t5v0__oai31_1 abstract view
.subckt gf180mcu_fd_sc_mcu7t5v0__oai31_1 A1 A2 A3 B ZN VDD VNW VPW VSS
.ends

* Black-box entry subcircuit for gf180mcu_fd_sc_mcu7t5v0__oai22_2 abstract view
.subckt gf180mcu_fd_sc_mcu7t5v0__oai22_2 A1 A2 B1 B2 ZN VDD VNW VPW VSS
.ends

* Black-box entry subcircuit for gf180mcu_fd_sc_mcu7t5v0__nand2_2 abstract view
.subckt gf180mcu_fd_sc_mcu7t5v0__nand2_2 A1 A2 ZN VDD VNW VPW VSS
.ends

* Black-box entry subcircuit for gf180mcu_fd_sc_mcu7t5v0__endcap abstract view
.subckt gf180mcu_fd_sc_mcu7t5v0__endcap VDD VSS
.ends

* Black-box entry subcircuit for gf180mcu_fd_sc_mcu7t5v0__fillcap_16 abstract view
.subckt gf180mcu_fd_sc_mcu7t5v0__fillcap_16 VDD VNW VPW VSS
.ends

* Black-box entry subcircuit for gf180mcu_fd_sc_mcu7t5v0__and2_1 abstract view
.subckt gf180mcu_fd_sc_mcu7t5v0__and2_1 A1 A2 Z VDD VNW VPW VSS
.ends

* Black-box entry subcircuit for gf180mcu_fd_sc_mcu7t5v0__fillcap_32 abstract view
.subckt gf180mcu_fd_sc_mcu7t5v0__fillcap_32 VDD VNW VPW VSS
.ends

* Black-box entry subcircuit for gf180mcu_fd_sc_mcu7t5v0__oai222_2 abstract view
.subckt gf180mcu_fd_sc_mcu7t5v0__oai222_2 A1 A2 B1 B2 C1 C2 ZN VDD VNW VPW VSS
.ends

* Black-box entry subcircuit for gf180mcu_fd_sc_mcu7t5v0__nor4_4 abstract view
.subckt gf180mcu_fd_sc_mcu7t5v0__nor4_4 A1 A2 A3 A4 ZN VDD VNW VPW VSS
.ends

* Black-box entry subcircuit for gf180mcu_fd_sc_mcu7t5v0__buf_2 abstract view
.subckt gf180mcu_fd_sc_mcu7t5v0__buf_2 I Z VDD VNW VPW VSS
.ends

* Black-box entry subcircuit for gf180mcu_fd_sc_mcu7t5v0__nor2_2 abstract view
.subckt gf180mcu_fd_sc_mcu7t5v0__nor2_2 A1 A2 ZN VDD VNW VPW VSS
.ends

* Black-box entry subcircuit for gf180mcu_fd_sc_mcu7t5v0__aoi221_1 abstract view
.subckt gf180mcu_fd_sc_mcu7t5v0__aoi221_1 A1 A2 B1 B2 C ZN VDD VNW VPW VSS
.ends

* Black-box entry subcircuit for gf180mcu_fd_sc_mcu7t5v0__dffq_2 abstract view
.subckt gf180mcu_fd_sc_mcu7t5v0__dffq_2 D CLK Q VDD VNW VPW VSS
.ends

* Black-box entry subcircuit for gf180mcu_fd_sc_mcu7t5v0__oai211_2 abstract view
.subckt gf180mcu_fd_sc_mcu7t5v0__oai211_2 A1 A2 B C ZN VDD VNW VPW VSS
.ends

* Black-box entry subcircuit for gf180mcu_fd_sc_mcu7t5v0__aoi211_2 abstract view
.subckt gf180mcu_fd_sc_mcu7t5v0__aoi211_2 A1 A2 B C ZN VDD VNW VPW VSS
.ends

* Black-box entry subcircuit for gf180mcu_fd_sc_mcu7t5v0__xor2_1 abstract view
.subckt gf180mcu_fd_sc_mcu7t5v0__xor2_1 A1 A2 Z VDD VNW VPW VSS
.ends

* Black-box entry subcircuit for gf180mcu_fd_sc_mcu7t5v0__oai32_1 abstract view
.subckt gf180mcu_fd_sc_mcu7t5v0__oai32_1 A1 A2 A3 B1 B2 ZN VDD VNW VPW VSS
.ends

* Black-box entry subcircuit for gf180mcu_fd_sc_mcu7t5v0__or3_1 abstract view
.subckt gf180mcu_fd_sc_mcu7t5v0__or3_1 A1 A2 A3 Z VDD VNW VPW VSS
.ends

* Black-box entry subcircuit for gf180mcu_fd_sc_mcu7t5v0__nand3_1 abstract view
.subckt gf180mcu_fd_sc_mcu7t5v0__nand3_1 A1 A2 A3 ZN VDD VNW VPW VSS
.ends

* Black-box entry subcircuit for gf180mcu_fd_sc_mcu7t5v0__clkinv_2 abstract view
.subckt gf180mcu_fd_sc_mcu7t5v0__clkinv_2 I ZN VDD VNW VPW VSS
.ends

* Black-box entry subcircuit for gf180mcu_fd_sc_mcu7t5v0__aoi222_2 abstract view
.subckt gf180mcu_fd_sc_mcu7t5v0__aoi222_2 A1 A2 B1 B2 C1 C2 ZN VDD VNW VPW VSS
.ends

* Black-box entry subcircuit for gf180mcu_fd_sc_mcu7t5v0__nand4_2 abstract view
.subckt gf180mcu_fd_sc_mcu7t5v0__nand4_2 A1 A2 A3 A4 ZN VDD VNW VPW VSS
.ends

* Black-box entry subcircuit for gf180mcu_fd_sc_mcu7t5v0__nand3_2 abstract view
.subckt gf180mcu_fd_sc_mcu7t5v0__nand3_2 A1 A2 A3 ZN VDD VNW VPW VSS
.ends

* Black-box entry subcircuit for gf180mcu_fd_sc_mcu7t5v0__aoi211_1 abstract view
.subckt gf180mcu_fd_sc_mcu7t5v0__aoi211_1 A1 A2 B C ZN VDD VNW VPW VSS
.ends

* Black-box entry subcircuit for gf180mcu_fd_sc_mcu7t5v0__mux2_2 abstract view
.subckt gf180mcu_fd_sc_mcu7t5v0__mux2_2 I0 I1 S Z VDD VNW VPW VSS
.ends

* Black-box entry subcircuit for gf180mcu_fd_sc_mcu7t5v0__oai22_1 abstract view
.subckt gf180mcu_fd_sc_mcu7t5v0__oai22_1 A1 A2 B1 B2 ZN VDD VNW VPW VSS
.ends

* Black-box entry subcircuit for gf180mcu_fd_sc_mcu7t5v0__fillcap_64 abstract view
.subckt gf180mcu_fd_sc_mcu7t5v0__fillcap_64 VDD VNW VPW VSS
.ends

* Black-box entry subcircuit for gf180mcu_fd_sc_mcu7t5v0__clkbuf_16 abstract view
.subckt gf180mcu_fd_sc_mcu7t5v0__clkbuf_16 I Z VDD VNW VPW VSS
.ends

* Black-box entry subcircuit for gf180mcu_fd_sc_mcu7t5v0__and4_1 abstract view
.subckt gf180mcu_fd_sc_mcu7t5v0__and4_1 A1 A2 A3 A4 Z VDD VNW VPW VSS
.ends

* Black-box entry subcircuit for gf180mcu_fd_sc_mcu7t5v0__xnor2_1 abstract view
.subckt gf180mcu_fd_sc_mcu7t5v0__xnor2_1 A1 A2 ZN VDD VNW VPW VSS
.ends

* Black-box entry subcircuit for gf180mcu_fd_sc_mcu7t5v0__aoi221_2 abstract view
.subckt gf180mcu_fd_sc_mcu7t5v0__aoi221_2 A1 A2 B1 B2 C ZN VDD VNW VPW VSS
.ends

* Black-box entry subcircuit for gf180mcu_fd_sc_mcu7t5v0__oai32_2 abstract view
.subckt gf180mcu_fd_sc_mcu7t5v0__oai32_2 A1 A2 A3 B1 B2 ZN VDD VNW VPW VSS
.ends

* Black-box entry subcircuit for gf180mcu_fd_sc_mcu7t5v0__aoi222_4 abstract view
.subckt gf180mcu_fd_sc_mcu7t5v0__aoi222_4 A1 A2 B1 B2 C1 C2 ZN VDD VNW VPW VSS
.ends

* Black-box entry subcircuit for gf180mcu_fd_sc_mcu7t5v0__or2_1 abstract view
.subckt gf180mcu_fd_sc_mcu7t5v0__or2_1 A1 A2 Z VDD VNW VPW VSS
.ends

* Black-box entry subcircuit for gf180mcu_fd_sc_mcu7t5v0__and4_2 abstract view
.subckt gf180mcu_fd_sc_mcu7t5v0__and4_2 A1 A2 A3 A4 Z VDD VNW VPW VSS
.ends

* Black-box entry subcircuit for gf180mcu_fd_sc_mcu7t5v0__aoi211_4 abstract view
.subckt gf180mcu_fd_sc_mcu7t5v0__aoi211_4 A1 A2 B C ZN VDD VNW VPW VSS
.ends

* Black-box entry subcircuit for gf180mcu_fd_sc_mcu7t5v0__nand4_4 abstract view
.subckt gf180mcu_fd_sc_mcu7t5v0__nand4_4 A1 A2 A3 A4 ZN VDD VNW VPW VSS
.ends

* Black-box entry subcircuit for gf180mcu_fd_sc_mcu7t5v0__oai211_4 abstract view
.subckt gf180mcu_fd_sc_mcu7t5v0__oai211_4 A1 A2 B C ZN VDD VNW VPW VSS
.ends

* Black-box entry subcircuit for gf180mcu_fd_sc_mcu7t5v0__nand4_1 abstract view
.subckt gf180mcu_fd_sc_mcu7t5v0__nand4_1 A1 A2 A3 A4 ZN VDD VNW VPW VSS
.ends

* Black-box entry subcircuit for gf180mcu_fd_sc_mcu7t5v0__aoi21_2 abstract view
.subckt gf180mcu_fd_sc_mcu7t5v0__aoi21_2 A1 A2 B ZN VDD VNW VPW VSS
.ends

* Black-box entry subcircuit for gf180mcu_fd_sc_mcu7t5v0__oai222_4 abstract view
.subckt gf180mcu_fd_sc_mcu7t5v0__oai222_4 A1 A2 B1 B2 C1 C2 ZN VDD VNW VPW VSS
.ends

* Black-box entry subcircuit for gf180mcu_fd_sc_mcu7t5v0__nor3_2 abstract view
.subckt gf180mcu_fd_sc_mcu7t5v0__nor3_2 A1 A2 A3 ZN VDD VNW VPW VSS
.ends

* Black-box entry subcircuit for gf180mcu_fd_sc_mcu7t5v0__nor4_2 abstract view
.subckt gf180mcu_fd_sc_mcu7t5v0__nor4_2 A1 A2 A3 A4 ZN VDD VNW VPW VSS
.ends

* Black-box entry subcircuit for gf180mcu_fd_sc_mcu7t5v0__inv_2 abstract view
.subckt gf180mcu_fd_sc_mcu7t5v0__inv_2 I ZN VDD VNW VPW VSS
.ends

* Black-box entry subcircuit for gf180mcu_fd_sc_mcu7t5v0__oai22_4 abstract view
.subckt gf180mcu_fd_sc_mcu7t5v0__oai22_4 A1 A2 B1 B2 ZN VDD VNW VPW VSS
.ends

* Black-box entry subcircuit for gf180mcu_fd_sc_mcu7t5v0__aoi221_4 abstract view
.subckt gf180mcu_fd_sc_mcu7t5v0__aoi221_4 A1 A2 B1 B2 C ZN VDD VNW VPW VSS
.ends

* Black-box entry subcircuit for gf180mcu_fd_sc_mcu7t5v0__clkbuf_3 abstract view
.subckt gf180mcu_fd_sc_mcu7t5v0__clkbuf_3 I Z VDD VNW VPW VSS
.ends

* Black-box entry subcircuit for gf180mcu_fd_sc_mcu7t5v0__or4_2 abstract view
.subckt gf180mcu_fd_sc_mcu7t5v0__or4_2 A1 A2 A3 A4 Z VDD VNW VPW VSS
.ends

* Black-box entry subcircuit for gf180mcu_fd_sc_mcu7t5v0__oai31_2 abstract view
.subckt gf180mcu_fd_sc_mcu7t5v0__oai31_2 A1 A2 A3 B ZN VDD VNW VPW VSS
.ends

* Black-box entry subcircuit for gf180mcu_fd_sc_mcu7t5v0__tiel abstract view
.subckt gf180mcu_fd_sc_mcu7t5v0__tiel ZN VDD VNW VPW VSS
.ends

* Black-box entry subcircuit for gf180mcu_fd_sc_mcu7t5v0__oai221_1 abstract view
.subckt gf180mcu_fd_sc_mcu7t5v0__oai221_1 A1 A2 B1 B2 C ZN VDD VNW VPW VSS
.ends

.subckt simpleuart clk reg_dat_di[0] reg_dat_di[10] reg_dat_di[11] reg_dat_di[12]
+ reg_dat_di[13] reg_dat_di[14] reg_dat_di[15] reg_dat_di[16] reg_dat_di[17] reg_dat_di[18]
+ reg_dat_di[19] reg_dat_di[1] reg_dat_di[20] reg_dat_di[21] reg_dat_di[22] reg_dat_di[23]
+ reg_dat_di[24] reg_dat_di[25] reg_dat_di[26] reg_dat_di[27] reg_dat_di[28] reg_dat_di[29]
+ reg_dat_di[2] reg_dat_di[30] reg_dat_di[31] reg_dat_di[3] reg_dat_di[4] reg_dat_di[5]
+ reg_dat_di[6] reg_dat_di[7] reg_dat_di[8] reg_dat_di[9] reg_dat_do[0] reg_dat_do[10]
+ reg_dat_do[11] reg_dat_do[12] reg_dat_do[13] reg_dat_do[14] reg_dat_do[15] reg_dat_do[16]
+ reg_dat_do[17] reg_dat_do[18] reg_dat_do[19] reg_dat_do[1] reg_dat_do[20] reg_dat_do[21]
+ reg_dat_do[22] reg_dat_do[23] reg_dat_do[24] reg_dat_do[25] reg_dat_do[26] reg_dat_do[27]
+ reg_dat_do[28] reg_dat_do[29] reg_dat_do[2] reg_dat_do[30] reg_dat_do[31] reg_dat_do[3]
+ reg_dat_do[4] reg_dat_do[5] reg_dat_do[6] reg_dat_do[7] reg_dat_do[8] reg_dat_do[9]
+ reg_dat_re reg_dat_wait reg_dat_we reg_div_di[0] reg_div_di[10] reg_div_di[11] reg_div_di[12]
+ reg_div_di[13] reg_div_di[14] reg_div_di[15] reg_div_di[16] reg_div_di[17] reg_div_di[18]
+ reg_div_di[19] reg_div_di[1] reg_div_di[20] reg_div_di[21] reg_div_di[22] reg_div_di[23]
+ reg_div_di[24] reg_div_di[25] reg_div_di[26] reg_div_di[27] reg_div_di[28] reg_div_di[29]
+ reg_div_di[2] reg_div_di[30] reg_div_di[31] reg_div_di[3] reg_div_di[4] reg_div_di[5]
+ reg_div_di[6] reg_div_di[7] reg_div_di[8] reg_div_di[9] reg_div_do[0] reg_div_do[10]
+ reg_div_do[11] reg_div_do[12] reg_div_do[13] reg_div_do[14] reg_div_do[15] reg_div_do[16]
+ reg_div_do[17] reg_div_do[18] reg_div_do[19] reg_div_do[1] reg_div_do[20] reg_div_do[21]
+ reg_div_do[22] reg_div_do[23] reg_div_do[24] reg_div_do[25] reg_div_do[26] reg_div_do[27]
+ reg_div_do[28] reg_div_do[29] reg_div_do[2] reg_div_do[30] reg_div_do[31] reg_div_do[3]
+ reg_div_do[4] reg_div_do[5] reg_div_do[6] reg_div_do[7] reg_div_do[8] reg_div_do[9]
+ reg_div_we[0] reg_div_we[1] reg_div_we[2] reg_div_we[3] resetn uart_in[0] uart_in[1]
+ uart_oeb[0] uart_oeb[1] uart_out[0] uart_out[1] vdd vss
XFILLER_0_27_82 vdd vdd vss vss gf180mcu_fd_sc_mcu7t5v0__fillcap_4
XTAP_TAPCELL_ROW_52_404 vdd vss gf180mcu_fd_sc_mcu7t5v0__filltie
XANTENNA__1569__I _0856_ vdd vdd vss vss gf180mcu_fd_sc_mcu7t5v0__antenna
XFILLER_0_17_233 vdd vdd vss vss gf180mcu_fd_sc_mcu7t5v0__fill_2
XFILLER_0_4_171 vdd vdd vss vss gf180mcu_fd_sc_mcu7t5v0__fillcap_4
XANTENNA__1693__A1 _0211_ vdd vdd vss vss gf180mcu_fd_sc_mcu7t5v0__antenna
XANTENNA__1942__I net123 vdd vdd vss vss gf180mcu_fd_sc_mcu7t5v0__antenna
XANTENNA__1684__A1 _0499_ vdd vdd vss vss gf180mcu_fd_sc_mcu7t5v0__antenna
X_1270_ _0446_ send_divcnt\[18\] send_divcnt\[17\] _0452_ _0629_ vdd vdd vss vss gf180mcu_fd_sc_mcu7t5v0__aoi22_1
X_0985_ _0345_ _0352_ _0367_ _0368_ _0369_ vdd vdd vss vss gf180mcu_fd_sc_mcu7t5v0__oai211_1
X_1606_ _0850_ _0152_ _0153_ _0072_ vdd vdd vss vss gf180mcu_fd_sc_mcu7t5v0__nor3_1
XTAP_TAPCELL_ROW_14_194 vdd vss gf180mcu_fd_sc_mcu7t5v0__filltie
XFILLER_0_14_225 vdd vdd vss vss gf180mcu_fd_sc_mcu7t5v0__fill_1
Xfanout127 net128 net127 vdd vdd vss vss gf180mcu_fd_sc_mcu7t5v0__clkbuf_1
Xfanout116 net128 net116 vdd vdd vss vss gf180mcu_fd_sc_mcu7t5v0__clkbuf_1
X_1399_ _0289_ _0743_ _0745_ _0037_ vdd vdd vss vss gf180mcu_fd_sc_mcu7t5v0__aoi21_1
X_1537_ send_divcnt\[8\] _0865_ _0869_ vdd vdd vss vss gf180mcu_fd_sc_mcu7t5v0__nand2_1
Xfanout138 net88 net138 vdd vdd vss vss gf180mcu_fd_sc_mcu7t5v0__clkbuf_2
X_1468_ _0790_ _0805_ _0812_ _0813_ vdd vdd vss vss gf180mcu_fd_sc_mcu7t5v0__oai21_1
XTAP_TAPCELL_ROW_28_275 vdd vss gf180mcu_fd_sc_mcu7t5v0__filltie
XANTENNA__1937__I net123 vdd vdd vss vss gf180mcu_fd_sc_mcu7t5v0__antenna
XFILLER_0_3_417 vdd vdd vss vss gf180mcu_fd_sc_mcu7t5v0__fill_2
Xsimpleuart_144 uart_oeb[1] vdd vdd vss vss gf180mcu_fd_sc_mcu7t5v0__tieh
X_1322_ send_bitcnt\[3\] _0290_ _0681_ vdd vdd vss vss gf180mcu_fd_sc_mcu7t5v0__nor2_1
X_1253_ send_divcnt\[15\] _0612_ vdd vdd vss vss gf180mcu_fd_sc_mcu7t5v0__clkinv_1
X_1184_ net28 _0550_ vdd vdd vss vss gf180mcu_fd_sc_mcu7t5v0__clkinv_1
X_0968_ net133 _0344_ _0349_ _0351_ _0352_ vdd vdd vss vss gf180mcu_fd_sc_mcu7t5v0__aoi22_1
Xclkbuf_4_12_0_clk clknet_0_clk clknet_4_12_0_clk vdd vdd vss vss gf180mcu_fd_sc_mcu7t5v0__clkbuf_8
XFILLER_0_49_80 vdd vdd vss vss gf180mcu_fd_sc_mcu7t5v0__fillcap_4
X_0899_ send_dummy _0292_ net10 _0293_ vdd vdd vss vss gf180mcu_fd_sc_mcu7t5v0__oai21_1
XANTENNA_input36_I reg_div_di[3] vdd vdd vss vss gf180mcu_fd_sc_mcu7t5v0__antenna
XFILLER_0_4_71 vdd vdd vss vss gf180mcu_fd_sc_mcu7t5v0__fillcap_4
XTAP_TAPCELL_ROW_2_132 vdd vss gf180mcu_fd_sc_mcu7t5v0__filltie
XTAP_TAPCELL_ROW_25_256 vdd vss gf180mcu_fd_sc_mcu7t5v0__filltie
XFILLER_0_29_28 vdd vdd vss vss gf180mcu_fd_sc_mcu7t5v0__fill_1
XANTENNA__1912__CLK clknet_4_10_0_clk vdd vdd vss vss gf180mcu_fd_sc_mcu7t5v0__antenna
X_1940_ net117 net54 vdd vdd vss vss gf180mcu_fd_sc_mcu7t5v0__clkbuf_1
X_1871_ _0071_ clknet_4_12_0_clk send_divcnt\[28\] vdd vdd vss vss gf180mcu_fd_sc_mcu7t5v0__dffq_1
XFILLER_0_28_169 vdd vdd vss vss gf180mcu_fd_sc_mcu7t5v0__fillcap_4
XFILLER_0_28_103 vdd vdd vss vss gf180mcu_fd_sc_mcu7t5v0__fill_2
XFILLER_0_51_172 vdd vdd vss vss gf180mcu_fd_sc_mcu7t5v0__fillcap_8
XANTENNA__1616__B _0567_ vdd vdd vss vss gf180mcu_fd_sc_mcu7t5v0__antenna
XFILLER_0_36_191 vdd vdd vss vss gf180mcu_fd_sc_mcu7t5v0__fill_2
XFILLER_0_24_375 vdd vdd vss vss gf180mcu_fd_sc_mcu7t5v0__fill_2
XFILLER_0_3_247 vdd vdd vss vss gf180mcu_fd_sc_mcu7t5v0__fill_2
XFILLER_0_10_41 vdd vdd vss vss gf180mcu_fd_sc_mcu7t5v0__fillcap_8
X_1236_ send_divcnt\[9\] _0595_ vdd vdd vss vss gf180mcu_fd_sc_mcu7t5v0__clkinv_1
X_1305_ _0661_ _0663_ _0664_ vdd vdd vss vss gf180mcu_fd_sc_mcu7t5v0__nand2_1
XFILLER_0_19_72 vdd vdd vss vss gf180mcu_fd_sc_mcu7t5v0__fillcap_4
X_1098_ _0481_ _0482_ vdd vdd vss vss gf180mcu_fd_sc_mcu7t5v0__clkinv_1
X_1167_ _0532_ _0536_ _0537_ _0013_ vdd vdd vss vss gf180mcu_fd_sc_mcu7t5v0__aoi21_1
XFILLER_0_30_301 vdd vdd vss vss gf180mcu_fd_sc_mcu7t5v0__fillcap_4
XTAP_TAPCELL_ROW_30_281 vdd vss gf180mcu_fd_sc_mcu7t5v0__filltie
XTAP_TAPCELL_ROW_22_237 vdd vss gf180mcu_fd_sc_mcu7t5v0__filltie
XFILLER_0_19_158 vdd vdd vss vss gf180mcu_fd_sc_mcu7t5v0__fill_1
XFILLER_0_42_194 vdd vdd vss vss gf180mcu_fd_sc_mcu7t5v0__fill_1
XFILLER_0_21_334 vdd vdd vss vss gf180mcu_fd_sc_mcu7t5v0__fill_1
XFILLER_0_21_356 vdd vdd vss vss gf180mcu_fd_sc_mcu7t5v0__fill_2
XANTENNA__1950__I net126 vdd vdd vss vss gf180mcu_fd_sc_mcu7t5v0__antenna
XTAP_TAPCELL_ROW_44_362 vdd vss gf180mcu_fd_sc_mcu7t5v0__filltie
XTAP_TAPCELL_ROW_36_318 vdd vss gf180mcu_fd_sc_mcu7t5v0__filltie
XANTENNA__1808__CLK clknet_4_0_0_clk vdd vdd vss vss gf180mcu_fd_sc_mcu7t5v0__antenna
X_1021_ recv_divcnt\[13\] _0405_ vdd vdd vss vss gf180mcu_fd_sc_mcu7t5v0__inv_1
X_1785_ net43 _0279_ vdd vdd vss vss gf180mcu_fd_sc_mcu7t5v0__buf_1
X_1923_ _0123_ clknet_4_5_0_clk net82 vdd vdd vss vss gf180mcu_fd_sc_mcu7t5v0__dffq_1
XFILLER_0_12_312 vdd vdd vss vss gf180mcu_fd_sc_mcu7t5v0__fill_2
X_1854_ _0054_ clknet_4_1_0_clk send_divcnt\[11\] vdd vdd vss vss gf180mcu_fd_sc_mcu7t5v0__dffq_1
X_1219_ _0479_ _0577_ send_divcnt\[1\] _0347_ _0578_ vdd vdd vss vss gf180mcu_fd_sc_mcu7t5v0__aoi22_2
XANTENNA__1081__B _0464_ vdd vdd vss vss gf180mcu_fd_sc_mcu7t5v0__antenna
XFILLER_0_47_286 vdd vdd vss vss gf180mcu_fd_sc_mcu7t5v0__fill_2
XFILLER_0_39_209 vdd vdd vss vss gf180mcu_fd_sc_mcu7t5v0__fill_1
XFILLER_0_1_50 vdd vdd vss vss gf180mcu_fd_sc_mcu7t5v0__fill_2
XTAP_TAPCELL_ROW_41_343 vdd vss gf180mcu_fd_sc_mcu7t5v0__filltie
XFILLER_0_38_242 vdd vdd vss vss gf180mcu_fd_sc_mcu7t5v0__fill_2
XFILLER_0_26_415 vdd vdd vss vss gf180mcu_fd_sc_mcu7t5v0__fill_2
X_1570_ send_divcnt\[18\] _0889_ send_divcnt\[19\] _0892_ vdd vdd vss vss gf180mcu_fd_sc_mcu7t5v0__aoi21_1
XFILLER_0_6_28 vdd vdd vss vss gf180mcu_fd_sc_mcu7t5v0__fillcap_4
XFILLER_0_21_142 vdd vdd vss vss gf180mcu_fd_sc_mcu7t5v0__fillcap_4
XFILLER_0_32_50 vdd vdd vss vss gf180mcu_fd_sc_mcu7t5v0__fill_1
X_1004_ net84 _0388_ vdd vdd vss vss gf180mcu_fd_sc_mcu7t5v0__buf_1
XFILLER_0_16_84 vdd vdd vss vss gf180mcu_fd_sc_mcu7t5v0__fill_2
X_1768_ _0751_ _0317_ _0263_ _0267_ vdd vdd vss vss gf180mcu_fd_sc_mcu7t5v0__and3_1
X_1837_ _0037_ clknet_4_6_0_clk send_bitcnt\[3\] vdd vdd vss vss gf180mcu_fd_sc_mcu7t5v0__dffq_1
X_1906_ _0106_ clknet_4_2_0_clk recv_divcnt\[15\] vdd vdd vss vss gf180mcu_fd_sc_mcu7t5v0__dffq_1
X_1699_ _0194_ _0218_ vdd vdd vss vss gf180mcu_fd_sc_mcu7t5v0__buf_1
XANTENNA__1590__I _0856_ vdd vdd vss vss gf180mcu_fd_sc_mcu7t5v0__antenna
XFILLER_0_35_212 vdd vdd vss vss gf180mcu_fd_sc_mcu7t5v0__fillcap_8
Xoutput53 net53 reg_dat_do[13] vdd vdd vss vss gf180mcu_fd_sc_mcu7t5v0__buf_8
Xoutput75 net75 reg_dat_do[4] vdd vdd vss vss gf180mcu_fd_sc_mcu7t5v0__buf_8
Xoutput64 net64 reg_dat_do[23] vdd vdd vss vss gf180mcu_fd_sc_mcu7t5v0__buf_8
XFILLER_0_37_28 vdd vdd vss vss gf180mcu_fd_sc_mcu7t5v0__fill_1
Xoutput86 net139 reg_div_do[13] vdd vdd vss vss gf180mcu_fd_sc_mcu7t5v0__buf_8
Xoutput97 net97 reg_div_do[23] vdd vdd vss vss gf180mcu_fd_sc_mcu7t5v0__buf_8
XFILLER_0_41_248 vdd vdd vss vss gf180mcu_fd_sc_mcu7t5v0__fillcap_8
X_1622_ recv_pattern\[3\] _0165_ vdd vdd vss vss gf180mcu_fd_sc_mcu7t5v0__clkinv_1
X_1484_ _0487_ _0750_ _0752_ _0828_ _0829_ vdd vdd vss vss gf180mcu_fd_sc_mcu7t5v0__aoi22_1
X_1553_ _0871_ _0879_ _0880_ _0056_ vdd vdd vss vss gf180mcu_fd_sc_mcu7t5v0__nor3_1
XFILLER_0_1_345 vdd vdd vss vss gf180mcu_fd_sc_mcu7t5v0__fillcap_4
XTAP_TAPCELL_ROW_52_405 vdd vss gf180mcu_fd_sc_mcu7t5v0__filltie
XFILLER_0_40_292 vdd vdd vss vss gf180mcu_fd_sc_mcu7t5v0__fill_2
XFILLER_0_4_183 vdd vdd vss vss gf180mcu_fd_sc_mcu7t5v0__fillcap_8
XFILLER_0_23_259 vdd vdd vss vss gf180mcu_fd_sc_mcu7t5v0__fill_2
XFILLER_0_23_204 vdd vdd vss vss gf180mcu_fd_sc_mcu7t5v0__fill_2
XFILLER_0_2_109 vdd vdd vss vss gf180mcu_fd_sc_mcu7t5v0__fill_1
XFILLER_0_31_270 vdd vdd vss vss gf180mcu_fd_sc_mcu7t5v0__fill_2
XFILLER_0_3_18 vdd vdd vss vss gf180mcu_fd_sc_mcu7t5v0__fillcap_8
XTAP_TAPCELL_ROW_8_160 vdd vss gf180mcu_fd_sc_mcu7t5v0__filltie
X_0984_ _0341_ _0342_ _0368_ vdd vdd vss vss gf180mcu_fd_sc_mcu7t5v0__nand2_1
XTAP_TAPCELL_ROW_14_195 vdd vss gf180mcu_fd_sc_mcu7t5v0__filltie
X_1605_ _0653_ _0648_ _0149_ _0153_ vdd vdd vss vss gf180mcu_fd_sc_mcu7t5v0__and3_1
X_1536_ _0850_ _0868_ vdd vdd vss vss gf180mcu_fd_sc_mcu7t5v0__buf_1
XFILLER_0_1_142 vdd vdd vss vss gf180mcu_fd_sc_mcu7t5v0__fillcap_4
Xfanout117 net119 net117 vdd vdd vss vss gf180mcu_fd_sc_mcu7t5v0__clkbuf_1
Xfanout128 net73 net128 vdd vdd vss vss gf180mcu_fd_sc_mcu7t5v0__clkbuf_1
XFILLER_0_38_82 vdd vdd vss vss gf180mcu_fd_sc_mcu7t5v0__fill_2
X_1398_ _0289_ _0290_ _0744_ _0498_ _0745_ vdd vdd vss vss gf180mcu_fd_sc_mcu7t5v0__oai31_1
Xfanout139 net86 net139 vdd vdd vss vss gf180mcu_fd_sc_mcu7t5v0__clkbuf_2
X_1467_ _0797_ _0809_ _0811_ _0812_ vdd vdd vss vss gf180mcu_fd_sc_mcu7t5v0__aoi21_1
XFILLER_0_54_70 vdd vdd vss vss gf180mcu_fd_sc_mcu7t5v0__fill_2
XFILLER_0_49_189 vdd vdd vss vss gf180mcu_fd_sc_mcu7t5v0__fillcap_4
XFILLER_0_9_220 vdd vdd vss vss gf180mcu_fd_sc_mcu7t5v0__fillcap_4
XFILLER_0_50_28 vdd vdd vss vss gf180mcu_fd_sc_mcu7t5v0__fillcap_4
XANTENNA__1841__CLK clknet_4_13_0_clk vdd vdd vss vss gf180mcu_fd_sc_mcu7t5v0__antenna
XFILLER_0_11_218 vdd vdd vss vss gf180mcu_fd_sc_mcu7t5v0__fill_2
X_1321_ _0679_ _0680_ vdd vdd vss vss gf180mcu_fd_sc_mcu7t5v0__buf_1
X_1252_ _0589_ _0594_ _0606_ _0610_ _0611_ vdd vdd vss vss gf180mcu_fd_sc_mcu7t5v0__oai31_1
XFILLER_0_46_115 vdd vdd vss vss gf180mcu_fd_sc_mcu7t5v0__fill_2
X_1183_ _0546_ _0547_ _0549_ _0017_ vdd vdd vss vss gf180mcu_fd_sc_mcu7t5v0__aoi21_1
XTAP_TAPCELL_ROW_19_221 vdd vss gf180mcu_fd_sc_mcu7t5v0__filltie
XFILLER_0_42_332 vdd vdd vss vss gf180mcu_fd_sc_mcu7t5v0__fillcap_4
XFILLER_0_42_321 vdd vdd vss vss gf180mcu_fd_sc_mcu7t5v0__fill_2
X_0967_ _0347_ _0348_ recv_divcnt\[0\] _0350_ _0351_ vdd vdd vss vss gf180mcu_fd_sc_mcu7t5v0__oai22_2
XFILLER_0_6_201 vdd vdd vss vss gf180mcu_fd_sc_mcu7t5v0__fill_1
XFILLER_0_42_387 vdd vdd vss vss gf180mcu_fd_sc_mcu7t5v0__fill_1
X_0898_ _0289_ _0291_ _0292_ vdd vdd vss vss gf180mcu_fd_sc_mcu7t5v0__nand2_2
X_1519_ _0856_ _0857_ vdd vdd vss vss gf180mcu_fd_sc_mcu7t5v0__buf_1
XPHY_EDGE_ROW_12_Right_12 vdd vss gf180mcu_fd_sc_mcu7t5v0__endcap
XANTENNA_input29_I reg_div_di[26] vdd vdd vss vss gf180mcu_fd_sc_mcu7t5v0__antenna
XANTENNA__1864__CLK clknet_4_8_0_clk vdd vdd vss vss gf180mcu_fd_sc_mcu7t5v0__antenna
XPHY_EDGE_ROW_21_Right_21 vdd vss gf180mcu_fd_sc_mcu7t5v0__endcap
XFILLER_0_52_107 vdd vdd vss vss gf180mcu_fd_sc_mcu7t5v0__fillcap_4
XFILLER_0_37_148 vdd vdd vss vss gf180mcu_fd_sc_mcu7t5v0__fill_2
XTAP_TAPCELL_ROW_25_257 vdd vss gf180mcu_fd_sc_mcu7t5v0__filltie
XFILLER_0_18_362 vdd vdd vss vss gf180mcu_fd_sc_mcu7t5v0__fill_2
XPHY_EDGE_ROW_30_Right_30 vdd vss gf180mcu_fd_sc_mcu7t5v0__endcap
XFILLER_0_29_18 vdd vdd vss vss gf180mcu_fd_sc_mcu7t5v0__fillcap_8
XFILLER_0_28_115 vdd vdd vss vss gf180mcu_fd_sc_mcu7t5v0__fillcap_4
XANTENNA__1948__I net122 vdd vdd vss vss gf180mcu_fd_sc_mcu7t5v0__antenna
X_1870_ _0070_ clknet_4_12_0_clk send_divcnt\[27\] vdd vdd vss vss gf180mcu_fd_sc_mcu7t5v0__dffq_1
XFILLER_0_24_321 vdd vdd vss vss gf180mcu_fd_sc_mcu7t5v0__fill_2
XFILLER_0_51_162 vdd vdd vss vss gf180mcu_fd_sc_mcu7t5v0__fill_1
XANTENNA__1887__CLK clknet_4_15_0_clk vdd vdd vss vss gf180mcu_fd_sc_mcu7t5v0__antenna
XANTENNA__1575__A1 _0853_ vdd vdd vss vss gf180mcu_fd_sc_mcu7t5v0__antenna
XFILLER_0_10_31 vdd vdd vss vss gf180mcu_fd_sc_mcu7t5v0__fill_2
XFILLER_0_35_61 vdd vdd vss vss gf180mcu_fd_sc_mcu7t5v0__fill_1
X_1304_ _0324_ send_divcnt\[26\] _0662_ _0663_ vdd vdd vss vss gf180mcu_fd_sc_mcu7t5v0__aoi21_1
X_1166_ _0534_ _0456_ _0530_ _0537_ vdd vdd vss vss gf180mcu_fd_sc_mcu7t5v0__oai21_1
X_1235_ _0592_ _0593_ _0594_ vdd vdd vss vss gf180mcu_fd_sc_mcu7t5v0__nand2_1
X_1097_ recv_divcnt\[0\] _0481_ vdd vdd vss vss gf180mcu_fd_sc_mcu7t5v0__buf_1
XFILLER_0_35_72 vdd vdd vss vss gf180mcu_fd_sc_mcu7t5v0__fill_2
XFILLER_0_34_107 vdd vdd vss vss gf180mcu_fd_sc_mcu7t5v0__fill_2
XTAP_TAPCELL_ROW_22_238 vdd vss gf180mcu_fd_sc_mcu7t5v0__filltie
XFILLER_0_19_137 vdd vdd vss vss gf180mcu_fd_sc_mcu7t5v0__fill_2
XFILLER_0_42_162 vdd vdd vss vss gf180mcu_fd_sc_mcu7t5v0__fill_1
XTAP_TAPCELL_ROW_30_282 vdd vss gf180mcu_fd_sc_mcu7t5v0__filltie
XFILLER_0_15_398 vdd vdd vss vss gf180mcu_fd_sc_mcu7t5v0__fill_2
XFILLER_0_18_181 vdd vdd vss vss gf180mcu_fd_sc_mcu7t5v0__fill_2
XFILLER_0_18_192 vdd vdd vss vss gf180mcu_fd_sc_mcu7t5v0__fillcap_4
X_1020_ _0393_ _0394_ _0404_ vdd vdd vss vss gf180mcu_fd_sc_mcu7t5v0__nand2_1
Xclkbuf_4_11_0_clk clknet_0_clk clknet_4_11_0_clk vdd vdd vss vss gf180mcu_fd_sc_mcu7t5v0__clkbuf_8
XTAP_TAPCELL_ROW_44_363 vdd vss gf180mcu_fd_sc_mcu7t5v0__filltie
XTAP_TAPCELL_ROW_36_319 vdd vss gf180mcu_fd_sc_mcu7t5v0__filltie
X_1922_ _0122_ clknet_4_11_0_clk recv_divcnt\[31\] vdd vdd vss vss gf180mcu_fd_sc_mcu7t5v0__dffq_1
X_1784_ net36 _0278_ vdd vdd vss vss gf180mcu_fd_sc_mcu7t5v0__clkinv_1
X_1853_ _0053_ clknet_4_1_0_clk send_divcnt\[10\] vdd vdd vss vss gf180mcu_fd_sc_mcu7t5v0__dffq_1
X_1218_ send_divcnt\[2\] _0577_ vdd vdd vss vss gf180mcu_fd_sc_mcu7t5v0__buf_1
X_1149_ _0523_ _0460_ _0516_ _0524_ vdd vdd vss vss gf180mcu_fd_sc_mcu7t5v0__oai21_1
XFILLER_0_35_405 vdd vdd vss vss gf180mcu_fd_sc_mcu7t5v0__fill_2
XANTENNA__1902__CLK clknet_4_0_0_clk vdd vdd vss vss gf180mcu_fd_sc_mcu7t5v0__antenna
XFILLER_0_30_187 vdd vdd vss vss gf180mcu_fd_sc_mcu7t5v0__fill_2
XANTENNA__1539__A1 _0868_ vdd vdd vss vss gf180mcu_fd_sc_mcu7t5v0__antenna
XFILLER_0_15_173 vdd vdd vss vss gf180mcu_fd_sc_mcu7t5v0__fill_1
XTAP_TAPCELL_ROW_41_344 vdd vss gf180mcu_fd_sc_mcu7t5v0__filltie
XANTENNA__1925__CLK clknet_4_5_0_clk vdd vdd vss vss gf180mcu_fd_sc_mcu7t5v0__antenna
XANTENNA__1702__A1 _0219_ vdd vdd vss vss gf180mcu_fd_sc_mcu7t5v0__antenna
X_1003_ _0383_ _0384_ _0385_ _0386_ _0387_ vdd vdd vss vss gf180mcu_fd_sc_mcu7t5v0__aoi22_2
XFILLER_0_16_30 vdd vdd vss vss gf180mcu_fd_sc_mcu7t5v0__fill_1
XFILLER_0_16_41 vdd vdd vss vss gf180mcu_fd_sc_mcu7t5v0__fill_1
XFILLER_0_44_213 vdd vdd vss vss gf180mcu_fd_sc_mcu7t5v0__fill_1
XANTENNA__1769__A1 _0218_ vdd vdd vss vss gf180mcu_fd_sc_mcu7t5v0__antenna
X_1905_ _0105_ clknet_4_2_0_clk recv_divcnt\[14\] vdd vdd vss vss gf180mcu_fd_sc_mcu7t5v0__dffq_1
XFILLER_0_44_268 vdd vdd vss vss gf180mcu_fd_sc_mcu7t5v0__fillcap_4
X_1836_ _0036_ clknet_4_6_0_clk send_bitcnt\[2\] vdd vdd vss vss gf180mcu_fd_sc_mcu7t5v0__dffq_1
X_1767_ _0751_ _0264_ _0266_ vdd vdd vss vss gf180mcu_fd_sc_mcu7t5v0__nor2_1
XFILLER_0_32_419 vdd vdd vss vss gf180mcu_fd_sc_mcu7t5v0__fill_1
XFILLER_0_4_387 vdd vdd vss vss gf180mcu_fd_sc_mcu7t5v0__fillcap_4
XFILLER_0_4_321 vdd vdd vss vss gf180mcu_fd_sc_mcu7t5v0__fill_1
XPHY_EDGE_ROW_6_Right_6 vdd vss gf180mcu_fd_sc_mcu7t5v0__endcap
X_1698_ _0211_ _0216_ _0217_ _0100_ vdd vdd vss vss gf180mcu_fd_sc_mcu7t5v0__nor3_1
XANTENNA_input11_I reg_div_di[0] vdd vdd vss vss gf180mcu_fd_sc_mcu7t5v0__antenna
XFILLER_0_35_268 vdd vdd vss vss gf180mcu_fd_sc_mcu7t5v0__fillcap_8
XFILLER_0_35_246 vdd vdd vss vss gf180mcu_fd_sc_mcu7t5v0__fill_1
XFILLER_0_7_170 vdd vdd vss vss gf180mcu_fd_sc_mcu7t5v0__fillcap_16
Xoutput54 net54 reg_dat_do[14] vdd vdd vss vss gf180mcu_fd_sc_mcu7t5v0__buf_8
Xoutput76 net76 reg_dat_do[5] vdd vdd vss vss gf180mcu_fd_sc_mcu7t5v0__buf_8
Xoutput65 net65 reg_dat_do[24] vdd vdd vss vss gf180mcu_fd_sc_mcu7t5v0__buf_8
XANTENNA__1781__I _0730_ vdd vdd vss vss gf180mcu_fd_sc_mcu7t5v0__antenna
XFILLER_0_37_18 vdd vdd vss vss gf180mcu_fd_sc_mcu7t5v0__fill_2
Xoutput98 net98 reg_div_do[24] vdd vdd vss vss gf180mcu_fd_sc_mcu7t5v0__buf_8
Xoutput87 net87 reg_div_do[14] vdd vdd vss vss gf180mcu_fd_sc_mcu7t5v0__buf_8
XFILLER_0_9_2 vdd vdd vss vss gf180mcu_fd_sc_mcu7t5v0__fillcap_16
XFILLER_0_26_224 vdd vdd vss vss gf180mcu_fd_sc_mcu7t5v0__fill_2
XFILLER_0_26_213 vdd vdd vss vss gf180mcu_fd_sc_mcu7t5v0__fill_1
X_1621_ _0162_ _0159_ _0164_ _0076_ vdd vdd vss vss gf180mcu_fd_sc_mcu7t5v0__aoi21_1
X_1552_ _0615_ _0877_ _0880_ vdd vdd vss vss gf180mcu_fd_sc_mcu7t5v0__and2_1
XFILLER_0_1_368 vdd vdd vss vss gf180mcu_fd_sc_mcu7t5v0__fillcap_32
XANTENNA_input3_I reg_dat_di[2] vdd vdd vss vss gf180mcu_fd_sc_mcu7t5v0__antenna
X_1483_ _0665_ _0751_ _0753_ _0754_ _0756_ _0827_ _0828_ vdd vdd vss vss gf180mcu_fd_sc_mcu7t5v0__oai222_2
XTAP_TAPCELL_ROW_52_406 vdd vss gf180mcu_fd_sc_mcu7t5v0__filltie
XFILLER_0_43_72 vdd vdd vss vss gf180mcu_fd_sc_mcu7t5v0__fill_1