* NGSPICE file created from simple_interconnect.ext - technology: gf180mcuD

* Black-box entry subcircuit for gf180mcu_fd_sc_mcu7t5v0__fill_2 abstract view
.subckt gf180mcu_fd_sc_mcu7t5v0__fill_2 VDD VNW VPW VSS
.ends

* Black-box entry subcircuit for gf180mcu_fd_sc_mcu7t5v0__fillcap_64 abstract view
.subckt gf180mcu_fd_sc_mcu7t5v0__fillcap_64 VDD VNW VPW VSS
.ends

* Black-box entry subcircuit for gf180mcu_fd_sc_mcu7t5v0__antenna abstract view
.subckt gf180mcu_fd_sc_mcu7t5v0__antenna I VDD VNW VPW VSS
.ends

* Black-box entry subcircuit for gf180mcu_fd_sc_mcu7t5v0__filltie abstract view
.subckt gf180mcu_fd_sc_mcu7t5v0__filltie VDD VSS
.ends

* Black-box entry subcircuit for gf180mcu_fd_sc_mcu7t5v0__fillcap_4 abstract view
.subckt gf180mcu_fd_sc_mcu7t5v0__fillcap_4 VDD VNW VPW VSS
.ends

* Black-box entry subcircuit for gf180mcu_fd_sc_mcu7t5v0__fillcap_8 abstract view
.subckt gf180mcu_fd_sc_mcu7t5v0__fillcap_8 VDD VNW VPW VSS
.ends

* Black-box entry subcircuit for gf180mcu_fd_sc_mcu7t5v0__fillcap_16 abstract view
.subckt gf180mcu_fd_sc_mcu7t5v0__fillcap_16 VDD VNW VPW VSS
.ends

* Black-box entry subcircuit for gf180mcu_fd_sc_mcu7t5v0__nand2_1 abstract view
.subckt gf180mcu_fd_sc_mcu7t5v0__nand2_1 A1 A2 ZN VDD VNW VPW VSS
.ends

* Black-box entry subcircuit for gf180mcu_fd_sc_mcu7t5v0__fillcap_32 abstract view
.subckt gf180mcu_fd_sc_mcu7t5v0__fillcap_32 VDD VNW VPW VSS
.ends

* Black-box entry subcircuit for gf180mcu_fd_sc_mcu7t5v0__aoi21_1 abstract view
.subckt gf180mcu_fd_sc_mcu7t5v0__aoi21_1 A1 A2 B ZN VDD VNW VPW VSS
.ends

* Black-box entry subcircuit for gf180mcu_fd_sc_mcu7t5v0__fill_1 abstract view
.subckt gf180mcu_fd_sc_mcu7t5v0__fill_1 VDD VNW VPW VSS
.ends

* Black-box entry subcircuit for gf180mcu_fd_sc_mcu7t5v0__clkbuf_1 abstract view
.subckt gf180mcu_fd_sc_mcu7t5v0__clkbuf_1 I Z VDD VNW VPW VSS
.ends

* Black-box entry subcircuit for gf180mcu_fd_sc_mcu7t5v0__dffq_1 abstract view
.subckt gf180mcu_fd_sc_mcu7t5v0__dffq_1 D CLK Q VDD VNW VPW VSS
.ends

* Black-box entry subcircuit for gf180mcu_fd_sc_mcu7t5v0__oai21_1 abstract view
.subckt gf180mcu_fd_sc_mcu7t5v0__oai21_1 A1 A2 B ZN VDD VNW VPW VSS
.ends

* Black-box entry subcircuit for gf180mcu_fd_sc_mcu7t5v0__nor2_1 abstract view
.subckt gf180mcu_fd_sc_mcu7t5v0__nor2_1 A1 A2 ZN VDD VNW VPW VSS
.ends

* Black-box entry subcircuit for gf180mcu_fd_sc_mcu7t5v0__clkinv_2 abstract view
.subckt gf180mcu_fd_sc_mcu7t5v0__clkinv_2 I ZN VDD VNW VPW VSS
.ends

* Black-box entry subcircuit for gf180mcu_fd_sc_mcu7t5v0__buf_8 abstract view
.subckt gf180mcu_fd_sc_mcu7t5v0__buf_8 I Z VDD VNW VPW VSS
.ends

* Black-box entry subcircuit for gf180mcu_fd_sc_mcu7t5v0__clkbuf_2 abstract view
.subckt gf180mcu_fd_sc_mcu7t5v0__clkbuf_2 I Z VDD VNW VPW VSS
.ends

* Black-box entry subcircuit for gf180mcu_fd_sc_mcu7t5v0__nor4_4 abstract view
.subckt gf180mcu_fd_sc_mcu7t5v0__nor4_4 A1 A2 A3 A4 ZN VDD VNW VPW VSS
.ends

* Black-box entry subcircuit for gf180mcu_fd_sc_mcu7t5v0__nand2_2 abstract view
.subckt gf180mcu_fd_sc_mcu7t5v0__nand2_2 A1 A2 ZN VDD VNW VPW VSS
.ends

* Black-box entry subcircuit for gf180mcu_fd_sc_mcu7t5v0__buf_2 abstract view
.subckt gf180mcu_fd_sc_mcu7t5v0__buf_2 I Z VDD VNW VPW VSS
.ends

* Black-box entry subcircuit for gf180mcu_fd_sc_mcu7t5v0__clkbuf_16 abstract view
.subckt gf180mcu_fd_sc_mcu7t5v0__clkbuf_16 I Z VDD VNW VPW VSS
.ends

* Black-box entry subcircuit for gf180mcu_fd_sc_mcu7t5v0__endcap abstract view
.subckt gf180mcu_fd_sc_mcu7t5v0__endcap VDD VSS
.ends

* Black-box entry subcircuit for gf180mcu_fd_sc_mcu7t5v0__clkinv_1 abstract view
.subckt gf180mcu_fd_sc_mcu7t5v0__clkinv_1 I ZN VDD VNW VPW VSS
.ends

* Black-box entry subcircuit for gf180mcu_fd_sc_mcu7t5v0__buf_1 abstract view
.subckt gf180mcu_fd_sc_mcu7t5v0__buf_1 I Z VDD VNW VPW VSS
.ends

* Black-box entry subcircuit for gf180mcu_fd_sc_mcu7t5v0__aoi22_4 abstract view
.subckt gf180mcu_fd_sc_mcu7t5v0__aoi22_4 A1 A2 B1 B2 ZN VDD VNW VPW VSS
.ends

* Black-box entry subcircuit for gf180mcu_fd_sc_mcu7t5v0__nand3_2 abstract view
.subckt gf180mcu_fd_sc_mcu7t5v0__nand3_2 A1 A2 A3 ZN VDD VNW VPW VSS
.ends

* Black-box entry subcircuit for gf180mcu_fd_sc_mcu7t5v0__aoi21_2 abstract view
.subckt gf180mcu_fd_sc_mcu7t5v0__aoi21_2 A1 A2 B ZN VDD VNW VPW VSS
.ends

* Black-box entry subcircuit for gf180mcu_fd_sc_mcu7t5v0__or4_4 abstract view
.subckt gf180mcu_fd_sc_mcu7t5v0__or4_4 A1 A2 A3 A4 Z VDD VNW VPW VSS
.ends

* Black-box entry subcircuit for gf180mcu_fd_sc_mcu7t5v0__buf_3 abstract view
.subckt gf180mcu_fd_sc_mcu7t5v0__buf_3 I Z VDD VNW VPW VSS
.ends

* Black-box entry subcircuit for gf180mcu_fd_sc_mcu7t5v0__nand2_4 abstract view
.subckt gf180mcu_fd_sc_mcu7t5v0__nand2_4 A1 A2 ZN VDD VNW VPW VSS
.ends

* Black-box entry subcircuit for gf180mcu_fd_sc_mcu7t5v0__and2_1 abstract view
.subckt gf180mcu_fd_sc_mcu7t5v0__and2_1 A1 A2 Z VDD VNW VPW VSS
.ends

* Black-box entry subcircuit for gf180mcu_fd_sc_mcu7t5v0__dffq_2 abstract view
.subckt gf180mcu_fd_sc_mcu7t5v0__dffq_2 D CLK Q VDD VNW VPW VSS
.ends

* Black-box entry subcircuit for gf180mcu_fd_sc_mcu7t5v0__oai21_2 abstract view
.subckt gf180mcu_fd_sc_mcu7t5v0__oai21_2 A1 A2 B ZN VDD VNW VPW VSS
.ends

* Black-box entry subcircuit for gf180mcu_fd_sc_mcu7t5v0__inv_1 abstract view
.subckt gf180mcu_fd_sc_mcu7t5v0__inv_1 I ZN VDD VNW VPW VSS
.ends

* Black-box entry subcircuit for gf180mcu_fd_sc_mcu7t5v0__nor3_2 abstract view
.subckt gf180mcu_fd_sc_mcu7t5v0__nor3_2 A1 A2 A3 ZN VDD VNW VPW VSS
.ends

* Black-box entry subcircuit for gf180mcu_fd_sc_mcu7t5v0__nor2_2 abstract view
.subckt gf180mcu_fd_sc_mcu7t5v0__nor2_2 A1 A2 ZN VDD VNW VPW VSS
.ends

* Black-box entry subcircuit for gf180mcu_fd_sc_mcu7t5v0__tiel abstract view
.subckt gf180mcu_fd_sc_mcu7t5v0__tiel ZN VDD VNW VPW VSS
.ends

* Black-box entry subcircuit for gf180mcu_fd_sc_mcu7t5v0__nand4_4 abstract view
.subckt gf180mcu_fd_sc_mcu7t5v0__nand4_4 A1 A2 A3 A4 ZN VDD VNW VPW VSS
.ends

* Black-box entry subcircuit for gf180mcu_fd_sc_mcu7t5v0__oai211_4 abstract view
.subckt gf180mcu_fd_sc_mcu7t5v0__oai211_4 A1 A2 B C ZN VDD VNW VPW VSS
.ends

* Black-box entry subcircuit for gf180mcu_fd_sc_mcu7t5v0__nand3_4 abstract view
.subckt gf180mcu_fd_sc_mcu7t5v0__nand3_4 A1 A2 A3 ZN VDD VNW VPW VSS
.ends

* Black-box entry subcircuit for gf180mcu_fd_sc_mcu7t5v0__and4_1 abstract view
.subckt gf180mcu_fd_sc_mcu7t5v0__and4_1 A1 A2 A3 A4 Z VDD VNW VPW VSS
.ends

* Black-box entry subcircuit for gf180mcu_fd_sc_mcu7t5v0__nor4_1 abstract view
.subckt gf180mcu_fd_sc_mcu7t5v0__nor4_1 A1 A2 A3 A4 ZN VDD VNW VPW VSS
.ends

* Black-box entry subcircuit for gf180mcu_fd_sc_mcu7t5v0__mux2_2 abstract view
.subckt gf180mcu_fd_sc_mcu7t5v0__mux2_2 I0 I1 S Z VDD VNW VPW VSS
.ends

.subckt simple_interconnect clk gpio_in[0] gpio_in[10] gpio_in[11] gpio_in[12] gpio_in[13]
+ gpio_in[14] gpio_in[15] gpio_in[1] gpio_in[2] gpio_in[3] gpio_in[4] gpio_in[5] gpio_in[6]
+ gpio_in[7] gpio_in[8] gpio_in[9] gpio_oeb[14] gpio_oeb[15] gpio_oeb[2] gpio_oeb[3]
+ gpio_oeb[4] gpio_oeb[5] gpio_oeb[6] gpio_oeb[8] gpio_oeb[9] gpio_out[0] gpio_out[10]
+ gpio_out[11] gpio_out[12] gpio_out[13] gpio_out[14] gpio_out[15] gpio_out[1] gpio_out[2]
+ gpio_out[3] gpio_out[4] gpio_out[5] gpio_out[6] gpio_out[7] gpio_out[8] gpio_out[9]
+ mem_addr[0] mem_addr[10] mem_addr[11] mem_addr[12] mem_addr[13] mem_addr[14] mem_addr[15]
+ mem_addr[16] mem_addr[17] mem_addr[18] mem_addr[19] mem_addr[1] mem_addr[20] mem_addr[21]
+ mem_addr[22] mem_addr[23] mem_addr[24] mem_addr[25] mem_addr[26] mem_addr[27] mem_addr[28]
+ mem_addr[29] mem_addr[2] mem_addr[30] mem_addr[31] mem_addr[3] mem_addr[4] mem_addr[5]
+ mem_addr[6] mem_addr[7] mem_addr[8] mem_addr[9] mem_instr mem_rdata[0] mem_rdata[10]
+ mem_rdata[11] mem_rdata[12] mem_rdata[13] mem_rdata[14] mem_rdata[15] mem_rdata[16]
+ mem_rdata[17] mem_rdata[18] mem_rdata[19] mem_rdata[1] mem_rdata[20] mem_rdata[21]
+ mem_rdata[22] mem_rdata[23] mem_rdata[24] mem_rdata[25] mem_rdata[26] mem_rdata[27]
+ mem_rdata[28] mem_rdata[29] mem_rdata[2] mem_rdata[30] mem_rdata[31] mem_rdata[3]
+ mem_rdata[4] mem_rdata[5] mem_rdata[6] mem_rdata[7] mem_rdata[8] mem_rdata[9] mem_ready
+ mem_valid mem_wdata[0] mem_wdata[10] mem_wdata[11] mem_wdata[12] mem_wdata[13] mem_wdata[14]
+ mem_wdata[15] mem_wdata[16] mem_wdata[17] mem_wdata[18] mem_wdata[19] mem_wdata[1]
+ mem_wdata[20] mem_wdata[21] mem_wdata[22] mem_wdata[23] mem_wdata[24] mem_wdata[25]
+ mem_wdata[26] mem_wdata[27] mem_wdata[28] mem_wdata[29] mem_wdata[2] mem_wdata[30]
+ mem_wdata[31] mem_wdata[3] mem_wdata[4] mem_wdata[5] mem_wdata[6] mem_wdata[7] mem_wdata[8]
+ mem_wdata[9] mem_wstrb[0] mem_wstrb[1] mem_wstrb[2] mem_wstrb[3] ram_gwenb[0] ram_gwenb[1]
+ ram_gwenb[2] ram_gwenb[3] ram_rdata[0] ram_rdata[10] ram_rdata[11] ram_rdata[12]
+ ram_rdata[13] ram_rdata[14] ram_rdata[15] ram_rdata[16] ram_rdata[17] ram_rdata[18]
+ ram_rdata[19] ram_rdata[1] ram_rdata[20] ram_rdata[21] ram_rdata[22] ram_rdata[23]
+ ram_rdata[24] ram_rdata[25] ram_rdata[26] ram_rdata[27] ram_rdata[28] ram_rdata[29]
+ ram_rdata[2] ram_rdata[30] ram_rdata[31] ram_rdata[3] ram_rdata[4] ram_rdata[5]
+ ram_rdata[6] ram_rdata[7] ram_rdata[8] ram_rdata[9] ram_wenb[0] ram_wenb[10] ram_wenb[11]
+ ram_wenb[12] ram_wenb[13] ram_wenb[14] ram_wenb[15] ram_wenb[16] ram_wenb[17] ram_wenb[18]
+ ram_wenb[19] ram_wenb[1] ram_wenb[20] ram_wenb[21] ram_wenb[22] ram_wenb[23] ram_wenb[24]
+ ram_wenb[25] ram_wenb[26] ram_wenb[27] ram_wenb[28] ram_wenb[29] ram_wenb[2] ram_wenb[30]
+ ram_wenb[31] ram_wenb[3] ram_wenb[4] ram_wenb[5] ram_wenb[6] ram_wenb[7] ram_wenb[8]
+ ram_wenb[9] resetn simpleuart_dat_re simpleuart_dat_we simpleuart_div_we[0] simpleuart_div_we[1]
+ simpleuart_div_we[2] simpleuart_div_we[3] simpleuart_reg_dat_do[0] simpleuart_reg_dat_do[10]
+ simpleuart_reg_dat_do[11] simpleuart_reg_dat_do[12] simpleuart_reg_dat_do[13] simpleuart_reg_dat_do[14]
+ simpleuart_reg_dat_do[15] simpleuart_reg_dat_do[16] simpleuart_reg_dat_do[17] simpleuart_reg_dat_do[18]
+ simpleuart_reg_dat_do[19] simpleuart_reg_dat_do[1] simpleuart_reg_dat_do[20] simpleuart_reg_dat_do[21]
+ simpleuart_reg_dat_do[22] simpleuart_reg_dat_do[23] simpleuart_reg_dat_do[24] simpleuart_reg_dat_do[25]
+ simpleuart_reg_dat_do[26] simpleuart_reg_dat_do[27] simpleuart_reg_dat_do[28] simpleuart_reg_dat_do[29]
+ simpleuart_reg_dat_do[2] simpleuart_reg_dat_do[30] simpleuart_reg_dat_do[31] simpleuart_reg_dat_do[3]
+ simpleuart_reg_dat_do[4] simpleuart_reg_dat_do[5] simpleuart_reg_dat_do[6] simpleuart_reg_dat_do[7]
+ simpleuart_reg_dat_do[8] simpleuart_reg_dat_do[9] simpleuart_reg_dat_wait simpleuart_reg_div_do[0]
+ simpleuart_reg_div_do[10] simpleuart_reg_div_do[11] simpleuart_reg_div_do[12] simpleuart_reg_div_do[13]
+ simpleuart_reg_div_do[14] simpleuart_reg_div_do[15] simpleuart_reg_div_do[16] simpleuart_reg_div_do[17]
+ simpleuart_reg_div_do[18] simpleuart_reg_div_do[19] simpleuart_reg_div_do[1] simpleuart_reg_div_do[20]
+ simpleuart_reg_div_do[21] simpleuart_reg_div_do[22] simpleuart_reg_div_do[23] simpleuart_reg_div_do[24]
+ simpleuart_reg_div_do[25] simpleuart_reg_div_do[26] simpleuart_reg_div_do[27] simpleuart_reg_div_do[28]
+ simpleuart_reg_div_do[29] simpleuart_reg_div_do[2] simpleuart_reg_div_do[30] simpleuart_reg_div_do[31]
+ simpleuart_reg_div_do[3] simpleuart_reg_div_do[4] simpleuart_reg_div_do[5] simpleuart_reg_div_do[6]
+ simpleuart_reg_div_do[7] simpleuart_reg_div_do[8] simpleuart_reg_div_do[9] spimem_rdata[0]
+ spimem_rdata[10] spimem_rdata[11] spimem_rdata[12] spimem_rdata[13] spimem_rdata[14]
+ spimem_rdata[15] spimem_rdata[16] spimem_rdata[17] spimem_rdata[18] spimem_rdata[19]
+ spimem_rdata[1] spimem_rdata[20] spimem_rdata[21] spimem_rdata[22] spimem_rdata[23]
+ spimem_rdata[24] spimem_rdata[25] spimem_rdata[26] spimem_rdata[27] spimem_rdata[28]
+ spimem_rdata[29] spimem_rdata[2] spimem_rdata[30] spimem_rdata[31] spimem_rdata[3]
+ spimem_rdata[4] spimem_rdata[5] spimem_rdata[6] spimem_rdata[7] spimem_rdata[8]
+ spimem_rdata[9] spimem_ready spimem_valid spimemio_cfgreg_do[0] spimemio_cfgreg_do[10]
+ spimemio_cfgreg_do[11] spimemio_cfgreg_do[12] spimemio_cfgreg_do[13] spimemio_cfgreg_do[14]
+ spimemio_cfgreg_do[15] spimemio_cfgreg_do[16] spimemio_cfgreg_do[17] spimemio_cfgreg_do[18]
+ spimemio_cfgreg_do[19] spimemio_cfgreg_do[1] spimemio_cfgreg_do[20] spimemio_cfgreg_do[21]
+ spimemio_cfgreg_do[22] spimemio_cfgreg_do[23] spimemio_cfgreg_do[24] spimemio_cfgreg_do[25]
+ spimemio_cfgreg_do[26] spimemio_cfgreg_do[27] spimemio_cfgreg_do[28] spimemio_cfgreg_do[29]
+ spimemio_cfgreg_do[2] spimemio_cfgreg_do[30] spimemio_cfgreg_do[31] spimemio_cfgreg_do[3]
+ spimemio_cfgreg_do[4] spimemio_cfgreg_do[5] spimemio_cfgreg_do[6] spimemio_cfgreg_do[7]
+ spimemio_cfgreg_do[8] spimemio_cfgreg_do[9] spimemio_cfgreg_we[0] spimemio_cfgreg_we[1]
+ spimemio_cfgreg_we[2] spimemio_cfgreg_we[3] vdd vss gpio_oeb[13] gpio_oeb[1] gpio_oeb[12]
+ gpio_oeb[11] gpio_oeb[0] gpio_oeb[10] gpio_oeb[7]
XFILLER_0_92_626 vdd vdd vss vss gf180mcu_fd_sc_mcu7t5v0__fill_2
XFILLER_0_76_177 vdd vdd vss vss gf180mcu_fd_sc_mcu7t5v0__fillcap_64
XANTENNA_input108_I simpleuart_reg_dat_do[14] vdd vdd vss vss gf180mcu_fd_sc_mcu7t5v0__antenna
XFILLER_0_64_317 vdd vdd vss vss gf180mcu_fd_sc_mcu7t5v0__fillcap_64
XFILLER_0_9_422 vdd vdd vss vss gf180mcu_fd_sc_mcu7t5v0__fillcap_64
XFILLER_0_32_247 vdd vdd vss vss gf180mcu_fd_sc_mcu7t5v0__fillcap_64
XTAP_TAPCELL_ROW_20_389 vdd vss gf180mcu_fd_sc_mcu7t5v0__filltie
XFILLER_0_17_288 vdd vdd vss vss gf180mcu_fd_sc_mcu7t5v0__fill_2
XANTENNA_input73_I ram_rdata[12] vdd vdd vss vss gf180mcu_fd_sc_mcu7t5v0__antenna
XANTENNA_output327_I net327 vdd vdd vss vss gf180mcu_fd_sc_mcu7t5v0__antenna
XFILLER_0_83_626 vdd vdd vss vss gf180mcu_fd_sc_mcu7t5v0__fillcap_4
XFILLER_0_68_667 vdd vdd vss vss gf180mcu_fd_sc_mcu7t5v0__fillcap_8
XTAP_TAPCELL_ROW_56_732 vdd vss gf180mcu_fd_sc_mcu7t5v0__filltie
XTAP_TAPCELL_ROW_28_467 vdd vss gf180mcu_fd_sc_mcu7t5v0__filltie
XFILLER_0_51_556 vdd vdd vss vss gf180mcu_fd_sc_mcu7t5v0__fillcap_4
XFILLER_0_36_597 vdd vdd vss vss gf180mcu_fd_sc_mcu7t5v0__fillcap_16
XFILLER_0_48_37 vdd vdd vss vss gf180mcu_fd_sc_mcu7t5v0__fillcap_64
XFILLER_0_11_409 vdd vdd vss vss gf180mcu_fd_sc_mcu7t5v0__fillcap_8
X_1270_ net243 _0079_ _0080_ vdd vdd vss vss gf180mcu_fd_sc_mcu7t5v0__nand2_1
XFILLER_0_3_28 vdd vdd vss vss gf180mcu_fd_sc_mcu7t5v0__fillcap_8
XFILLER_0_73_136 vdd vdd vss vss gf180mcu_fd_sc_mcu7t5v0__fillcap_4
XFILLER_0_58_177 vdd vdd vss vss gf180mcu_fd_sc_mcu7t5v0__fillcap_64
XFILLER_0_46_317 vdd vdd vss vss gf180mcu_fd_sc_mcu7t5v0__fillcap_64
XFILLER_0_6_403 vdd vdd vss vss gf180mcu_fd_sc_mcu7t5v0__fillcap_32
XFILLER_0_89_66 vdd vdd vss vss gf180mcu_fd_sc_mcu7t5v0__fillcap_4
X_0985_ _0412_ _0438_ _0415_ _0439_ vdd vdd vss vss gf180mcu_fd_sc_mcu7t5v0__aoi21_1
XANTENNA_clkbuf_3_2__f_clk_I clknet_0_clk vdd vdd vss vss gf180mcu_fd_sc_mcu7t5v0__antenna
XFILLER_0_2_675 vdd vdd vss vss gf180mcu_fd_sc_mcu7t5v0__fill_2
XFILLER_0_14_269 vdd vdd vss vss gf180mcu_fd_sc_mcu7t5v0__fill_1
X_1468_ net333 net289 vdd vdd vss vss gf180mcu_fd_sc_mcu7t5v0__clkbuf_1
X_1399_ _0026_ clknet_3_3__leaf_clk iomem_rdata\[1\] vdd vdd vss vss gf180mcu_fd_sc_mcu7t5v0__dffq_1
XFILLER_0_10_453 vdd vdd vss vss gf180mcu_fd_sc_mcu7t5v0__fill_2
XFILLER_0_92_401 vdd vdd vss vss gf180mcu_fd_sc_mcu7t5v0__fill_2
XANTENNA_input225_I spimemio_cfgreg_do[31] vdd vdd vss vss gf180mcu_fd_sc_mcu7t5v0__antenna
XTAP_TAPCELL_ROW_53_702 vdd vss gf180mcu_fd_sc_mcu7t5v0__filltie
XTAP_TAPCELL_ROW_25_437 vdd vss gf180mcu_fd_sc_mcu7t5v0__filltie
XFILLER_0_92_423 vdd vdd vss vss gf180mcu_fd_sc_mcu7t5v0__fill_2
XFILLER_0_77_486 vdd vdd vss vss gf180mcu_fd_sc_mcu7t5v0__fillcap_4
XFILLER_0_65_626 vdd vdd vss vss gf180mcu_fd_sc_mcu7t5v0__fillcap_4
XFILLER_0_45_372 vdd vdd vss vss gf180mcu_fd_sc_mcu7t5v0__fill_2
XFILLER_0_33_556 vdd vdd vss vss gf180mcu_fd_sc_mcu7t5v0__fillcap_4
XFILLER_0_18_597 vdd vdd vss vss gf180mcu_fd_sc_mcu7t5v0__fillcap_16
XANTENNA_output277_I net277 vdd vdd vss vss gf180mcu_fd_sc_mcu7t5v0__antenna
XFILLER_0_87_206 vdd vdd vss vss gf180mcu_fd_sc_mcu7t5v0__fillcap_4
XFILLER_0_55_136 vdd vdd vss vss gf180mcu_fd_sc_mcu7t5v0__fillcap_4
XFILLER_0_28_317 vdd vdd vss vss gf180mcu_fd_sc_mcu7t5v0__fill_2
X_0770_ net125 _0239_ _0197_ _0240_ vdd vdd vss vss gf180mcu_fd_sc_mcu7t5v0__aoi21_1
XFILLER_0_75_68 vdd vdd vss vss gf180mcu_fd_sc_mcu7t5v0__fill_2
X_1253_ gpio\[31\] _0657_ _0658_ _0068_ vdd vdd vss vss gf180mcu_fd_sc_mcu7t5v0__oai21_1
X_1322_ gpio\[24\] _0111_ _0112_ vdd vdd vss vss gf180mcu_fd_sc_mcu7t5v0__nand2_1
XFILLER_0_91_34 vdd vdd vss vss gf180mcu_fd_sc_mcu7t5v0__fillcap_32
XTAP_TAPCELL_ROW_67_838 vdd vss gf180mcu_fd_sc_mcu7t5v0__filltie
X_1184_ net39 _0606_ _0613_ vdd vdd vss vss gf180mcu_fd_sc_mcu7t5v0__nor2_1
XFILLER_0_59_486 vdd vdd vss vss gf180mcu_fd_sc_mcu7t5v0__fillcap_4
XTAP_TAPCELL_ROW_22_407 vdd vss gf180mcu_fd_sc_mcu7t5v0__filltie
XFILLER_0_6_244 vdd vdd vss vss gf180mcu_fd_sc_mcu7t5v0__fill_1
X_0968_ iomem_rdata\[17\] _0423_ vdd vdd vss vss gf180mcu_fd_sc_mcu7t5v0__clkinv_2
XANTENNA_input175_I spimem_rdata[16] vdd vdd vss vss gf180mcu_fd_sc_mcu7t5v0__antenna
Xoutput242 net242 gpio_out[3] vdd vdd vss vss gf180mcu_fd_sc_mcu7t5v0__buf_8
XFILLER_0_64_2 vdd vdd vss vss gf180mcu_fd_sc_mcu7t5v0__fill_2
Xoutput286 net286 ram_wenb[0] vdd vdd vss vss gf180mcu_fd_sc_mcu7t5v0__buf_8
X_0899_ _0212_ _0359_ vdd vdd vss vss gf180mcu_fd_sc_mcu7t5v0__clkbuf_2
XFILLER_0_42_397 vdd vdd vss vss gf180mcu_fd_sc_mcu7t5v0__fillcap_32
XTAP_TAPCELL_ROW_30_484 vdd vss gf180mcu_fd_sc_mcu7t5v0__filltie
Xoutput264 net264 mem_rdata[23] vdd vdd vss vss gf180mcu_fd_sc_mcu7t5v0__buf_8
XFILLER_0_2_461 vdd vdd vss vss gf180mcu_fd_sc_mcu7t5v0__fill_2
Xoutput253 net253 mem_rdata[13] vdd vdd vss vss gf180mcu_fd_sc_mcu7t5v0__buf_8
Xoutput275 net275 mem_rdata[4] vdd vdd vss vss gf180mcu_fd_sc_mcu7t5v0__buf_8
XFILLER_0_10_261 vdd vdd vss vss gf180mcu_fd_sc_mcu7t5v0__fillcap_8
XFILLER_0_15_556 vdd vdd vss vss gf180mcu_fd_sc_mcu7t5v0__fillcap_4
XFILLER_0_69_206 vdd vdd vss vss gf180mcu_fd_sc_mcu7t5v0__fillcap_4
Xoutput297 net297 ram_wenb[1] vdd vdd vss vss gf180mcu_fd_sc_mcu7t5v0__buf_8
XANTENNA_input36_I mem_wdata[11] vdd vdd vss vss gf180mcu_fd_sc_mcu7t5v0__antenna
XFILLER_0_92_231 vdd vdd vss vss gf180mcu_fd_sc_mcu7t5v0__fillcap_8
XTAP_TAPCELL_ROW_38_562 vdd vss gf180mcu_fd_sc_mcu7t5v0__filltie
XFILLER_0_37_136 vdd vdd vss vss gf180mcu_fd_sc_mcu7t5v0__fillcap_4
XFILLER_0_33_386 vdd vdd vss vss gf180mcu_fd_sc_mcu7t5v0__fill_1
XTAP_TAPCELL_ROW_64_808 vdd vss gf180mcu_fd_sc_mcu7t5v0__filltie
XFILLER_0_0_18 vdd vdd vss vss gf180mcu_fd_sc_mcu7t5v0__fill_2
XTAP_TAPCELL_ROW_72_885 vdd vss gf180mcu_fd_sc_mcu7t5v0__filltie
X_0822_ net164 _0262_ _0288_ vdd vdd vss vss gf180mcu_fd_sc_mcu7t5v0__nor2_1
XFILLER_0_86_34 vdd vdd vss vss gf180mcu_fd_sc_mcu7t5v0__fill_1
X_0753_ _0224_ _0225_ vdd vdd vss vss gf180mcu_fd_sc_mcu7t5v0__clkbuf_2
XFILLER_0_24_397 vdd vdd vss vss gf180mcu_fd_sc_mcu7t5v0__fill_2
X_0684_ _0149_ _0153_ _0157_ _0167_ _0168_ vdd vdd vss vss gf180mcu_fd_sc_mcu7t5v0__nor4_4
XFILLER_0_19_72 vdd vdd vss vss gf180mcu_fd_sc_mcu7t5v0__fillcap_64
X_1236_ _0651_ _0652_ _0019_ vdd vdd vss vss gf180mcu_fd_sc_mcu7t5v0__nor2_1
X_1305_ _0423_ _0097_ _0101_ _0042_ vdd vdd vss vss gf180mcu_fd_sc_mcu7t5v0__oai21_1
X_1098_ _0540_ _0542_ _0543_ vdd vdd vss vss gf180mcu_fd_sc_mcu7t5v0__nand2_2
XTAP_TAPCELL_ROW_35_532 vdd vss gf180mcu_fd_sc_mcu7t5v0__filltie
XFILLER_0_35_60 vdd vdd vss vss gf180mcu_fd_sc_mcu7t5v0__fillcap_8
XANTENNA__0746__I net70 vdd vdd vss vss gf180mcu_fd_sc_mcu7t5v0__antenna
XFILLER_0_19_136 vdd vdd vss vss gf180mcu_fd_sc_mcu7t5v0__fillcap_4
X_1167_ net248 _0596_ _0598_ _0601_ vdd vdd vss vss gf180mcu_fd_sc_mcu7t5v0__oai21_1
XFILLER_0_35_618 vdd vdd vss vss gf180mcu_fd_sc_mcu7t5v0__fill_2
XFILLER_0_30_378 vdd vdd vss vss gf180mcu_fd_sc_mcu7t5v0__fill_1
XTAP_TAPCELL_ROW_7_268 vdd vss gf180mcu_fd_sc_mcu7t5v0__filltie
XFILLER_0_26_629 vdd vdd vss vss gf180mcu_fd_sc_mcu7t5v0__fill_2
XFILLER_0_61_492 vdd vdd vss vss gf180mcu_fd_sc_mcu7t5v0__fillcap_64
XFILLER_0_34_662 vdd vdd vss vss gf180mcu_fd_sc_mcu7t5v0__fill_2
XFILLER_0_21_301 vdd vdd vss vss gf180mcu_fd_sc_mcu7t5v0__fill_2
XFILLER_0_0_206 vdd vdd vss vss gf180mcu_fd_sc_mcu7t5v0__fill_2
XTAP_TAPCELL_ROW_77_933 vdd vss gf180mcu_fd_sc_mcu7t5v0__filltie
XFILLER_0_56_37 vdd vdd vss vss gf180mcu_fd_sc_mcu7t5v0__fillcap_64
XTAP_TAPCELL_ROW_49_668 vdd vss gf180mcu_fd_sc_mcu7t5v0__filltie
X_1021_ net214 _0446_ _0458_ _0472_ vdd vdd vss vss gf180mcu_fd_sc_mcu7t5v0__aoi21_1
XTAP_TAPCELL_ROW_32_502 vdd vss gf180mcu_fd_sc_mcu7t5v0__filltie
XFILLER_0_8_317 vdd vdd vss vss gf180mcu_fd_sc_mcu7t5v0__fill_2
XFILLER_0_71_212 vdd vdd vss vss gf180mcu_fd_sc_mcu7t5v0__fillcap_64
XFILLER_0_40_621 vdd vdd vss vss gf180mcu_fd_sc_mcu7t5v0__fillcap_4
X_0805_ _0226_ _0273_ vdd vdd vss vss gf180mcu_fd_sc_mcu7t5v0__clkbuf_2
X_0736_ _0166_ _0208_ vdd vdd vss vss gf180mcu_fd_sc_mcu7t5v0__clkbuf_1
X_0667_ net14 net13 net16 net15 _0151_ vdd vdd vss vss gf180mcu_fd_sc_mcu7t5v0__nor4_4
XFILLER_0_27_2 vdd vdd vss vss gf180mcu_fd_sc_mcu7t5v0__fillcap_64
XANTENNA_input138_I simpleuart_reg_div_do[11] vdd vdd vss vss gf180mcu_fd_sc_mcu7t5v0__antenna
XTAP_TAPCELL_ROW_4_238 vdd vss gf180mcu_fd_sc_mcu7t5v0__filltie
X_1219_ _0638_ _0639_ _0015_ vdd vdd vss vss gf180mcu_fd_sc_mcu7t5v0__nor2_1
XFILLER_0_90_521 vdd vdd vss vss gf180mcu_fd_sc_mcu7t5v0__fillcap_4
XFILLER_0_75_562 vdd vdd vss vss gf180mcu_fd_sc_mcu7t5v0__fillcap_64
XFILLER_0_1_72 vdd vdd vss vss gf180mcu_fd_sc_mcu7t5v0__fill_1
XFILLER_0_43_492 vdd vdd vss vss gf180mcu_fd_sc_mcu7t5v0__fillcap_64
XFILLER_0_31_632 vdd vdd vss vss gf180mcu_fd_sc_mcu7t5v0__fillcap_4
XFILLER_0_31_610 vdd vdd vss vss gf180mcu_fd_sc_mcu7t5v0__fillcap_4
XTAP_TAPCELL_ROW_82_980 vdd vss gf180mcu_fd_sc_mcu7t5v0__filltie
XTAP_TAPCELL_ROW_74_903 vdd vss gf180mcu_fd_sc_mcu7t5v0__filltie
XTAP_TAPCELL_ROW_46_638 vdd vss gf180mcu_fd_sc_mcu7t5v0__filltie
XFILLER_0_42_28 vdd vdd vss vss gf180mcu_fd_sc_mcu7t5v0__fillcap_4
XFILLER_0_53_212 vdd vdd vss vss gf180mcu_fd_sc_mcu7t5v0__fillcap_64
XANTENNA__1010__I net82 vdd vdd vss vss gf180mcu_fd_sc_mcu7t5v0__antenna
XFILLER_0_67_69 vdd vdd vss vss gf180mcu_fd_sc_mcu7t5v0__fill_1
XFILLER_0_21_142 vdd vdd vss vss gf180mcu_fd_sc_mcu7t5v0__fillcap_8
XFILLER_0_1_559 vdd vdd vss vss gf180mcu_fd_sc_mcu7t5v0__fill_1
XFILLER_0_1_548 vdd vdd vss vss gf180mcu_fd_sc_mcu7t5v0__fill_2
XFILLER_0_6_28 vdd vdd vss vss gf180mcu_fd_sc_mcu7t5v0__fillcap_4
XFILLER_0_89_632 vdd vdd vss vss gf180mcu_fd_sc_mcu7t5v0__fillcap_32
XFILLER_0_83_68 vdd vdd vss vss gf180mcu_fd_sc_mcu7t5v0__fill_2
XTAP_TAPCELL_ROW_1_208 vdd vss gf180mcu_fd_sc_mcu7t5v0__filltie
XFILLER_0_13_8 vdd vdd vss vss gf180mcu_fd_sc_mcu7t5v0__fill_2
XFILLER_0_91_318 vdd vdd vss vss gf180mcu_fd_sc_mcu7t5v0__fillcap_4
XFILLER_0_91_307 vdd vdd vss vss gf180mcu_fd_sc_mcu7t5v0__fill_2
XFILLER_0_88_164 vdd vdd vss vss gf180mcu_fd_sc_mcu7t5v0__fillcap_8
XFILLER_0_84_381 vdd vdd vss vss gf180mcu_fd_sc_mcu7t5v0__fillcap_4
XFILLER_0_72_521 vdd vdd vss vss gf180mcu_fd_sc_mcu7t5v0__fillcap_4
XFILLER_0_57_562 vdd vdd vss vss gf180mcu_fd_sc_mcu7t5v0__fillcap_64
X_1004_ _0404_ _0456_ vdd vdd vss vss gf180mcu_fd_sc_mcu7t5v0__clkbuf_1
XFILLER_0_9_626 vdd vdd vss vss gf180mcu_fd_sc_mcu7t5v0__fillcap_4
XFILLER_0_9_648 vdd vdd vss vss gf180mcu_fd_sc_mcu7t5v0__fillcap_8
XTAP_TAPCELL_ROW_17_362 vdd vss gf180mcu_fd_sc_mcu7t5v0__filltie
XFILLER_0_25_492 vdd vdd vss vss gf180mcu_fd_sc_mcu7t5v0__fillcap_64
XFILLER_0_12_131 vdd vdd vss vss gf180mcu_fd_sc_mcu7t5v0__fillcap_4
XFILLER_0_13_632 vdd vdd vss vss gf180mcu_fd_sc_mcu7t5v0__fillcap_32
XFILLER_0_40_484 vdd vdd vss vss gf180mcu_fd_sc_mcu7t5v0__fillcap_32
X_0719_ _0149_ _0153_ _0157_ _0165_ _0195_ vdd vdd vss vss gf180mcu_fd_sc_mcu7t5v0__nor4_4
XFILLER_0_79_142 vdd vdd vss vss gf180mcu_fd_sc_mcu7t5v0__fillcap_64
XTAP_TAPCELL_ROW_43_608 vdd vss gf180mcu_fd_sc_mcu7t5v0__filltie
XTAP_TAPCELL_ROW_51_685 vdd vss gf180mcu_fd_sc_mcu7t5v0__filltie
XFILLER_0_35_212 vdd vdd vss vss gf180mcu_fd_sc_mcu7t5v0__fillcap_64
XTAP_TAPCELL_ROW_91_1069 vdd vss gf180mcu_fd_sc_mcu7t5v0__filltie
Xinput186 spimem_rdata[26] net186 vdd vdd vss vss gf180mcu_fd_sc_mcu7t5v0__clkbuf_2
Xinput197 spimem_rdata[7] net197 vdd vdd vss vss gf180mcu_fd_sc_mcu7t5v0__clkbuf_2
Xinput175 spimem_rdata[16] net175 vdd vdd vss vss gf180mcu_fd_sc_mcu7t5v0__buf_2
Xinput120 simpleuart_reg_dat_do[25] net120 vdd vdd vss vss gf180mcu_fd_sc_mcu7t5v0__clkbuf_1
Xinput131 simpleuart_reg_dat_do[6] net131 vdd vdd vss vss gf180mcu_fd_sc_mcu7t5v0__clkbuf_1
XTAP_TAPCELL_ROW_59_763 vdd vss gf180mcu_fd_sc_mcu7t5v0__filltie
Xinput153 simpleuart_reg_div_do[25] net153 vdd vdd vss vss gf180mcu_fd_sc_mcu7t5v0__clkbuf_1
Xinput142 simpleuart_reg_div_do[15] net142 vdd vdd vss vss gf180mcu_fd_sc_mcu7t5v0__clkbuf_1
XANTENNA__1160__A1 net67 vdd vdd vss vss gf180mcu_fd_sc_mcu7t5v0__antenna
Xinput164 simpleuart_reg_div_do[6] net164 vdd vdd vss vss gf180mcu_fd_sc_mcu7t5v0__clkbuf_1
XFILLER_0_66_381 vdd vdd vss vss gf180mcu_fd_sc_mcu7t5v0__fillcap_4
XFILLER_0_54_521 vdd vdd vss vss gf180mcu_fd_sc_mcu7t5v0__fillcap_4
XFILLER_0_39_562 vdd vdd vss vss gf180mcu_fd_sc_mcu7t5v0__fillcap_32
XTAP_TAPCELL_ROW_14_332 vdd vss gf180mcu_fd_sc_mcu7t5v0__filltie
XFILLER_0_6_629 vdd vdd vss vss gf180mcu_fd_sc_mcu7t5v0__fillcap_8
X_1484_ net339 net306 vdd vdd vss vss gf180mcu_fd_sc_mcu7t5v0__clkbuf_1
XFILLER_0_76_101 vdd vdd vss vss gf180mcu_fd_sc_mcu7t5v0__fillcap_4
XFILLER_0_27_72 vdd vdd vss vss gf180mcu_fd_sc_mcu7t5v0__fillcap_64
XANTENNA__1151__A1 _0183_ vdd vdd vss vss gf180mcu_fd_sc_mcu7t5v0__antenna
XFILLER_0_92_649 vdd vdd vss vss gf180mcu_fd_sc_mcu7t5v0__fill_2
XFILLER_0_43_60 vdd vdd vss vss gf180mcu_fd_sc_mcu7t5v0__fillcap_8
XFILLER_0_17_278 vdd vdd vss vss gf180mcu_fd_sc_mcu7t5v0__fill_2
XFILLER_0_17_212 vdd vdd vss vss gf180mcu_fd_sc_mcu7t5v0__fill_1
XANTENNA__0717__A1 _0183_ vdd vdd vss vss gf180mcu_fd_sc_mcu7t5v0__antenna
XANTENNA_input66_I mem_wstrb[0] vdd vdd vss vss gf180mcu_fd_sc_mcu7t5v0__antenna
XFILLER_0_2_8 vdd vdd vss vss gf180mcu_fd_sc_mcu7t5v0__fill_2
XFILLER_0_4_172 vdd vdd vss vss gf180mcu_fd_sc_mcu7t5v0__fill_1
XFILLER_0_68_679 vdd vdd vss vss gf180mcu_fd_sc_mcu7t5v0__fill_1
XTAP_TAPCELL_ROW_56_733 vdd vss gf180mcu_fd_sc_mcu7t5v0__filltie
XFILLER_0_48_381 vdd vdd vss vss gf180mcu_fd_sc_mcu7t5v0__fillcap_4
XTAP_TAPCELL_ROW_28_468 vdd vss gf180mcu_fd_sc_mcu7t5v0__filltie
Xclkbuf_3_6__f_clk clknet_0_clk clknet_3_6__leaf_clk vdd vdd vss vss gf180mcu_fd_sc_mcu7t5v0__clkbuf_16
XPHY_EDGE_ROW_39_Left_133 vdd vss gf180mcu_fd_sc_mcu7t5v0__endcap
XFILLER_0_23_259 vdd vdd vss vss gf180mcu_fd_sc_mcu7t5v0__fillcap_16
XFILLER_0_64_37 vdd vdd vss vss gf180mcu_fd_sc_mcu7t5v0__fillcap_64
XFILLER_0_58_101 vdd vdd vss vss gf180mcu_fd_sc_mcu7t5v0__fillcap_4
XPHY_EDGE_ROW_48_Left_142 vdd vss gf180mcu_fd_sc_mcu7t5v0__endcap
XFILLER_0_89_34 vdd vdd vss vss gf180mcu_fd_sc_mcu7t5v0__fillcap_32
XFILLER_0_39_392 vdd vdd vss vss gf180mcu_fd_sc_mcu7t5v0__fillcap_4
X_0984_ net79 _0438_ vdd vdd vss vss gf180mcu_fd_sc_mcu7t5v0__clkinv_1
XPHY_EDGE_ROW_57_Left_151 vdd vss gf180mcu_fd_sc_mcu7t5v0__endcap
XANTENNA__0947__A1 net110 vdd vdd vss vss gf180mcu_fd_sc_mcu7t5v0__antenna
XFILLER_0_22_292 vdd vdd vss vss gf180mcu_fd_sc_mcu7t5v0__fill_1
XFILLER_0_2_687 vdd vdd vss vss gf180mcu_fd_sc_mcu7t5v0__fill_1
XFILLER_0_1_142 vdd vdd vss vss gf180mcu_fd_sc_mcu7t5v0__fill_2
X_1467_ net333 net288 vdd vdd vss vss gf180mcu_fd_sc_mcu7t5v0__clkbuf_1
XPHY_EDGE_ROW_66_Left_160 vdd vss gf180mcu_fd_sc_mcu7t5v0__endcap
X_1398_ _0025_ clknet_3_6__leaf_clk iomem_rdata\[0\] vdd vdd vss vss gf180mcu_fd_sc_mcu7t5v0__dffq_1
XANTENNA__1372__A1 net246 vdd vdd vss vss gf180mcu_fd_sc_mcu7t5v0__antenna
XANTENNA_input218_I spimemio_cfgreg_do[25] vdd vdd vss vss gf180mcu_fd_sc_mcu7t5v0__antenna
XANTENNA_input120_I simpleuart_reg_dat_do[25] vdd vdd vss vss gf180mcu_fd_sc_mcu7t5v0__antenna
XTAP_TAPCELL_ROW_53_703 vdd vss gf180mcu_fd_sc_mcu7t5v0__filltie
XTAP_TAPCELL_ROW_25_438 vdd vss gf180mcu_fd_sc_mcu7t5v0__filltie
XTAP_TAPCELL_ROW_61_780 vdd vss gf180mcu_fd_sc_mcu7t5v0__filltie
XFILLER_0_5_492 vdd vdd vss vss gf180mcu_fd_sc_mcu7t5v0__fillcap_32
XFILLER_0_60_387 vdd vdd vss vss gf180mcu_fd_sc_mcu7t5v0__fillcap_64
XANTENNA__1363__A1 net243 vdd vdd vss vss gf180mcu_fd_sc_mcu7t5v0__antenna
XFILLER_0_70_107 vdd vdd vss vss gf180mcu_fd_sc_mcu7t5v0__fillcap_64
XFILLER_0_50_28 vdd vdd vss vss gf180mcu_fd_sc_mcu7t5v0__fillcap_4
XANTENNA__0929__A1 _0384_ vdd vdd vss vss gf180mcu_fd_sc_mcu7t5v0__antenna
XFILLER_0_24_524 vdd vdd vss vss gf180mcu_fd_sc_mcu7t5v0__fill_1
XTAP_TAPCELL_ROW_67_839 vdd vss gf180mcu_fd_sc_mcu7t5v0__filltie
X_1252_ net58 _0655_ _0067_ vdd vdd vss vss gf180mcu_fd_sc_mcu7t5v0__nor2_1
XANTENNA__1354__A1 net241 vdd vdd vss vss gf180mcu_fd_sc_mcu7t5v0__antenna
X_1321_ _0098_ _0111_ vdd vdd vss vss gf180mcu_fd_sc_mcu7t5v0__buf_1
X_1183_ _0611_ _0612_ _0006_ vdd vdd vss vss gf180mcu_fd_sc_mcu7t5v0__nor2_1
XFILLER_0_74_457 vdd vdd vss vss gf180mcu_fd_sc_mcu7t5v0__fillcap_64
XTAP_TAPCELL_ROW_30_485 vdd vss gf180mcu_fd_sc_mcu7t5v0__filltie
XTAP_TAPCELL_ROW_22_408 vdd vss gf180mcu_fd_sc_mcu7t5v0__filltie
X_0967_ _0400_ _0402_ _0417_ _0422_ net256 vdd vdd vss vss gf180mcu_fd_sc_mcu7t5v0__aoi22_4
XFILLER_0_6_278 vdd vdd vss vss gf180mcu_fd_sc_mcu7t5v0__fill_2
Xoutput243 net243 gpio_out[4] vdd vdd vss vss gf180mcu_fd_sc_mcu7t5v0__buf_8
XANTENNA_input168_I spimem_rdata[0] vdd vdd vss vss gf180mcu_fd_sc_mcu7t5v0__antenna
Xoutput298 net298 ram_wenb[20] vdd vdd vss vss gf180mcu_fd_sc_mcu7t5v0__buf_8
XFILLER_0_71_4 vdd vdd vss vss gf180mcu_fd_sc_mcu7t5v0__fill_1
Xoutput287 net287 ram_wenb[10] vdd vdd vss vss gf180mcu_fd_sc_mcu7t5v0__buf_8
XFILLER_0_57_2 vdd vdd vss vss gf180mcu_fd_sc_mcu7t5v0__fill_2
XFILLER_0_42_387 vdd vdd vss vss gf180mcu_fd_sc_mcu7t5v0__fill_2
XFILLER_0_30_527 vdd vdd vss vss gf180mcu_fd_sc_mcu7t5v0__fillcap_64
X_0898_ net139 _0357_ _0358_ vdd vdd vss vss gf180mcu_fd_sc_mcu7t5v0__nor2_1
Xoutput276 net276 mem_rdata[5] vdd vdd vss vss gf180mcu_fd_sc_mcu7t5v0__buf_8
XFILLER_0_2_440 vdd vdd vss vss gf180mcu_fd_sc_mcu7t5v0__fill_2