*SPEF "ieee 1481-1999"
*DESIGN "ctrl"
*DATE "11:11:11 Fri 11 11, 1111"
*VENDOR "OpenRCX"
*PROGRAM "Parallel Extraction"
*VERSION "1.0"
*DESIGN_FLOW "NAME_SCOPE LOCAL" "PIN_CAP NONE"
*DIVIDER /
*DELIMITER :
*BUS_DELIMITER []
*T_UNIT 1 NS
*C_UNIT 1 PF
*R_UNIT 1 OHM
*L_UNIT 1 HENRY

*NAME_MAP
*1 ctrl_in[0]
*2 ctrl_in[1]
*3 net8
*4 net7
*5 net4
*6 net5
*7 reset
*8 resetn
*11 clknet_0_ctrl_in[0]
*12 clknet_1_0__leaf_ctrl_in[0]
*13 clknet_1_1__leaf_ctrl_in[0]
*14 net1
*15 net2
*16 net3
*17 net6
*18 net9
*19 rst_sync_0\.sync_reg\[0\]
*20 rst_sync_0\.sync_reg\[1\]
*21 rst_sync_0\.sync_reg\[2\]
*22 rst_sync_0\.sync_reg\[3\]
*23 ANTENNA__01__I
*24 ANTENNA__06__SETN
*25 ANTENNA_clkbuf_0_ctrl_in\[0\]_I
*26 ANTENNA_fanout1_I
*27 ANTENNA_input1_I
*28 ANTENNA_output2_I
*29 ANTENNA_output3_I
*30 FILLER_0_0_104
*31 FILLER_0_0_138
*32 FILLER_0_0_172
*33 FILLER_0_0_2
*34 FILLER_0_0_210
*35 FILLER_0_0_215
*36 FILLER_0_0_221
*37 FILLER_0_0_237
*38 FILLER_0_0_240
*39 FILLER_0_0_274
*40 FILLER_0_0_308
*41 FILLER_0_0_342
*42 FILLER_0_0_36
*43 FILLER_0_0_376
*44 FILLER_0_0_410
*45 FILLER_0_0_418
*46 FILLER_0_0_70
*47 FILLER_0_10_101
*48 FILLER_0_10_107
*49 FILLER_0_10_171
*50 FILLER_0_10_177
*51 FILLER_0_10_2
*52 FILLER_0_10_241
*53 FILLER_0_10_247
*54 FILLER_0_10_311
*55 FILLER_0_10_317
*56 FILLER_0_10_34
*57 FILLER_0_10_37
*58 FILLER_0_10_381
*59 FILLER_0_10_387
*60 FILLER_0_10_419
*61 FILLER_0_11_136
*62 FILLER_0_11_142
*63 FILLER_0_11_2
*64 FILLER_0_11_206
*65 FILLER_0_11_212
*66 FILLER_0_11_276
*67 FILLER_0_11_282
*68 FILLER_0_11_346
*69 FILLER_0_11_352
*70 FILLER_0_11_416
*71 FILLER_0_11_66
*72 FILLER_0_11_72
*73 FILLER_0_12_101
*74 FILLER_0_12_107
*75 FILLER_0_12_171
*76 FILLER_0_12_177
*77 FILLER_0_12_2
*78 FILLER_0_12_241
*79 FILLER_0_12_247
*80 FILLER_0_12_311
*81 FILLER_0_12_317
*82 FILLER_0_12_34
*83 FILLER_0_12_37
*84 FILLER_0_12_381
*85 FILLER_0_12_387
*86 FILLER_0_12_419
*87 FILLER_0_13_136
*88 FILLER_0_13_142
*89 FILLER_0_13_2
*90 FILLER_0_13_206
*91 FILLER_0_13_212
*92 FILLER_0_13_276
*93 FILLER_0_13_282
*94 FILLER_0_13_346
*95 FILLER_0_13_352
*96 FILLER_0_13_416
*97 FILLER_0_13_66
*98 FILLER_0_13_72
*99 FILLER_0_14_101
*100 FILLER_0_14_107
*101 FILLER_0_14_171
*102 FILLER_0_14_177
*103 FILLER_0_14_2
*104 FILLER_0_14_241
*105 FILLER_0_14_247
*106 FILLER_0_14_311
*107 FILLER_0_14_317
*108 FILLER_0_14_34
*109 FILLER_0_14_37
*110 FILLER_0_14_381
*111 FILLER_0_14_387
*112 FILLER_0_14_419
*113 FILLER_0_15_136
*114 FILLER_0_15_142
*115 FILLER_0_15_2
*116 FILLER_0_15_206
*117 FILLER_0_15_212
*118 FILLER_0_15_276
*119 FILLER_0_15_282
*120 FILLER_0_15_346
*121 FILLER_0_15_352
*122 FILLER_0_15_416
*123 FILLER_0_15_66
*124 FILLER_0_15_72
*125 FILLER_0_16_101
*126 FILLER_0_16_107
*127 FILLER_0_16_171
*128 FILLER_0_16_177
*129 FILLER_0_16_2
*130 FILLER_0_16_241
*131 FILLER_0_16_247
*132 FILLER_0_16_311
*133 FILLER_0_16_317
*134 FILLER_0_16_34
*135 FILLER_0_16_37
*136 FILLER_0_16_381
*137 FILLER_0_16_387
*138 FILLER_0_16_419
*139 FILLER_0_17_136
*140 FILLER_0_17_142
*141 FILLER_0_17_2
*142 FILLER_0_17_206
*143 FILLER_0_17_212
*144 FILLER_0_17_276
*145 FILLER_0_17_282
*146 FILLER_0_17_346
*147 FILLER_0_17_352
*148 FILLER_0_17_416
*149 FILLER_0_17_66
*150 FILLER_0_17_72
*151 FILLER_0_18_101
*152 FILLER_0_18_107
*153 FILLER_0_18_171
*154 FILLER_0_18_177
*155 FILLER_0_18_2
*156 FILLER_0_18_241
*157 FILLER_0_18_247
*158 FILLER_0_18_311
*159 FILLER_0_18_317
*160 FILLER_0_18_34
*161 FILLER_0_18_37
*162 FILLER_0_18_381
*163 FILLER_0_18_387
*164 FILLER_0_18_419
*165 FILLER_0_19_136
*166 FILLER_0_19_142
*167 FILLER_0_19_2
*168 FILLER_0_19_206
*169 FILLER_0_19_212
*170 FILLER_0_19_276
*171 FILLER_0_19_282
*172 FILLER_0_19_346
*173 FILLER_0_19_352
*174 FILLER_0_19_416
*175 FILLER_0_19_66
*176 FILLER_0_19_72
*177 FILLER_0_1_136
*178 FILLER_0_1_142
*179 FILLER_0_1_2
*180 FILLER_0_1_206
*181 FILLER_0_1_212
*182 FILLER_0_1_276
*183 FILLER_0_1_282
*184 FILLER_0_1_346
*185 FILLER_0_1_352
*186 FILLER_0_1_416
*187 FILLER_0_1_66
*188 FILLER_0_1_72
*189 FILLER_0_20_101
*190 FILLER_0_20_107
*191 FILLER_0_20_171
*192 FILLER_0_20_177
*193 FILLER_0_20_2
*194 FILLER_0_20_241
*195 FILLER_0_20_247
*196 FILLER_0_20_311
*197 FILLER_0_20_317
*198 FILLER_0_20_34
*199 FILLER_0_20_37
*200 FILLER_0_20_381
*201 FILLER_0_20_387
*202 FILLER_0_20_419
*203 FILLER_0_21_136
*204 FILLER_0_21_142
*205 FILLER_0_21_2
*206 FILLER_0_21_206
*207 FILLER_0_21_212
*208 FILLER_0_21_276
*209 FILLER_0_21_282
*210 FILLER_0_21_346
*211 FILLER_0_21_352
*212 FILLER_0_21_416
*213 FILLER_0_21_66
*214 FILLER_0_21_72
*215 FILLER_0_22_101
*216 FILLER_0_22_107
*217 FILLER_0_22_171
*218 FILLER_0_22_177
*219 FILLER_0_22_185
*220 FILLER_0_22_189
*221 FILLER_0_22_191
*222 FILLER_0_22_2
*223 FILLER_0_22_228
*224 FILLER_0_22_244
*225 FILLER_0_22_247
*226 FILLER_0_22_311
*227 FILLER_0_22_317
*228 FILLER_0_22_34
*229 FILLER_0_22_37
*230 FILLER_0_22_381
*231 FILLER_0_22_387
*232 FILLER_0_22_419
*233 FILLER_0_23_136
*234 FILLER_0_23_142
*235 FILLER_0_23_2
*236 FILLER_0_23_206
*237 FILLER_0_23_212
*238 FILLER_0_23_276
*239 FILLER_0_23_282
*240 FILLER_0_23_346
*241 FILLER_0_23_352
*242 FILLER_0_23_416
*243 FILLER_0_23_66
*244 FILLER_0_23_72
*245 FILLER_0_24_101
*246 FILLER_0_24_107
*247 FILLER_0_24_171
*248 FILLER_0_24_2
*249 FILLER_0_24_227
*250 FILLER_0_24_243
*251 FILLER_0_24_247
*252 FILLER_0_24_311
*253 FILLER_0_24_317
*254 FILLER_0_24_34
*255 FILLER_0_24_37
*256 FILLER_0_24_381
*257 FILLER_0_24_387
*258 FILLER_0_24_419
*259 FILLER_0_25_136
*260 FILLER_0_25_142
*261 FILLER_0_25_174
*262 FILLER_0_25_190
*263 FILLER_0_25_2
*264 FILLER_0_25_202
*265 FILLER_0_25_248
*266 FILLER_0_25_282
*267 FILLER_0_25_346
*268 FILLER_0_25_352
*269 FILLER_0_25_416
*270 FILLER_0_25_66
*271 FILLER_0_25_72
*272 FILLER_0_26_101
*273 FILLER_0_26_107
*274 FILLER_0_26_171
*275 FILLER_0_26_177
*276 FILLER_0_26_2
*277 FILLER_0_26_247
*278 FILLER_0_26_311
*279 FILLER_0_26_317
*280 FILLER_0_26_34
*281 FILLER_0_26_37
*282 FILLER_0_26_381
*283 FILLER_0_26_387
*284 FILLER_0_26_403
*285 FILLER_0_26_407
*286 FILLER_0_26_409
*287 FILLER_0_27_136
*288 FILLER_0_27_142
*289 FILLER_0_27_2
*290 FILLER_0_27_212
*291 FILLER_0_27_214
*292 FILLER_0_27_275
*293 FILLER_0_27_279
*294 FILLER_0_27_282
*295 FILLER_0_27_346
*296 FILLER_0_27_352
*297 FILLER_0_27_384
*298 FILLER_0_27_66
*299 FILLER_0_27_72
*300 FILLER_0_28_101
*301 FILLER_0_28_107
*302 FILLER_0_28_171
*303 FILLER_0_28_177
*304 FILLER_0_28_193
*305 FILLER_0_28_2
*306 FILLER_0_28_232
*307 FILLER_0_28_236
*308 FILLER_0_28_244
*309 FILLER_0_28_247
*310 FILLER_0_28_311
*311 FILLER_0_28_317
*312 FILLER_0_28_34
*313 FILLER_0_28_37
*314 FILLER_0_28_381
*315 FILLER_0_28_387
*316 FILLER_0_28_391
*317 FILLER_0_29_136
*318 FILLER_0_29_142
*319 FILLER_0_29_2
*320 FILLER_0_29_206
*321 FILLER_0_29_212
*322 FILLER_0_29_276
*323 FILLER_0_29_282
*324 FILLER_0_29_346
*325 FILLER_0_29_352
*326 FILLER_0_29_66
*327 FILLER_0_29_72
*328 FILLER_0_2_101
*329 FILLER_0_2_107
*330 FILLER_0_2_171
*331 FILLER_0_2_177
*332 FILLER_0_2_2
*333 FILLER_0_2_241
*334 FILLER_0_2_247
*335 FILLER_0_2_311
*336 FILLER_0_2_317
*337 FILLER_0_2_34
*338 FILLER_0_2_37
*339 FILLER_0_2_381
*340 FILLER_0_2_387
*341 FILLER_0_2_419
*342 FILLER_0_30_101
*343 FILLER_0_30_107
*344 FILLER_0_30_171
*345 FILLER_0_30_177
*346 FILLER_0_30_193
*347 FILLER_0_30_2
*348 FILLER_0_30_230
*349 FILLER_0_30_238
*350 FILLER_0_30_242
*351 FILLER_0_30_244
*352 FILLER_0_30_247
*353 FILLER_0_30_311
*354 FILLER_0_30_317
*355 FILLER_0_30_34
*356 FILLER_0_30_37
*357 FILLER_0_30_381
*358 FILLER_0_30_387
*359 FILLER_0_30_419
*360 FILLER_0_31_136
*361 FILLER_0_31_142
*362 FILLER_0_31_2
*363 FILLER_0_31_206
*364 FILLER_0_31_212
*365 FILLER_0_31_276
*366 FILLER_0_31_282
*367 FILLER_0_31_346
*368 FILLER_0_31_352
*369 FILLER_0_31_416
*370 FILLER_0_31_66
*371 FILLER_0_31_72
*372 FILLER_0_32_101
*373 FILLER_0_32_107
*374 FILLER_0_32_171
*375 FILLER_0_32_177
*376 FILLER_0_32_2
*377 FILLER_0_32_241
*378 FILLER_0_32_247
*379 FILLER_0_32_311
*380 FILLER_0_32_317
*381 FILLER_0_32_34
*382 FILLER_0_32_37
*383 FILLER_0_32_381
*384 FILLER_0_32_387
*385 FILLER_0_32_419
*386 FILLER_0_33_136
*387 FILLER_0_33_142
*388 FILLER_0_33_2
*389 FILLER_0_33_206
*390 FILLER_0_33_212
*391 FILLER_0_33_276
*392 FILLER_0_33_282
*393 FILLER_0_33_346
*394 FILLER_0_33_352
*395 FILLER_0_33_416
*396 FILLER_0_33_66
*397 FILLER_0_33_72
*398 FILLER_0_34_101
*399 FILLER_0_34_107
*400 FILLER_0_34_171
*401 FILLER_0_34_177
*402 FILLER_0_34_2
*403 FILLER_0_34_241
*404 FILLER_0_34_247
*405 FILLER_0_34_311
*406 FILLER_0_34_317
*407 FILLER_0_34_34
*408 FILLER_0_34_37
*409 FILLER_0_34_381
*410 FILLER_0_34_387
*411 FILLER_0_34_419
*412 FILLER_0_35_136
*413 FILLER_0_35_142
*414 FILLER_0_35_2
*415 FILLER_0_35_206
*416 FILLER_0_35_212
*417 FILLER_0_35_276
*418 FILLER_0_35_282
*419 FILLER_0_35_346
*420 FILLER_0_35_352
*421 FILLER_0_35_416
*422 FILLER_0_35_66
*423 FILLER_0_35_72
*424 FILLER_0_36_101
*425 FILLER_0_36_107
*426 FILLER_0_36_171
*427 FILLER_0_36_177
*428 FILLER_0_36_2
*429 FILLER_0_36_241
*430 FILLER_0_36_247
*431 FILLER_0_36_311
*432 FILLER_0_36_317
*433 FILLER_0_36_34
*434 FILLER_0_36_37
*435 FILLER_0_36_381
*436 FILLER_0_36_387
*437 FILLER_0_36_419
*438 FILLER_0_37_136
*439 FILLER_0_37_142
*440 FILLER_0_37_2
*441 FILLER_0_37_206
*442 FILLER_0_37_212
*443 FILLER_0_37_276
*444 FILLER_0_37_282
*445 FILLER_0_37_346
*446 FILLER_0_37_352
*447 FILLER_0_37_416
*448 FILLER_0_37_66
*449 FILLER_0_37_72
*450 FILLER_0_38_101
*451 FILLER_0_38_107
*452 FILLER_0_38_171
*453 FILLER_0_38_177
*454 FILLER_0_38_2
*455 FILLER_0_38_241
*456 FILLER_0_38_247
*457 FILLER_0_38_311
*458 FILLER_0_38_317
*459 FILLER_0_38_34
*460 FILLER_0_38_37
*461 FILLER_0_38_381
*462 FILLER_0_38_387
*463 FILLER_0_38_419
*464 FILLER_0_39_136
*465 FILLER_0_39_142
*466 FILLER_0_39_2
*467 FILLER_0_39_206
*468 FILLER_0_39_212
*469 FILLER_0_39_276
*470 FILLER_0_39_282
*471 FILLER_0_39_346
*472 FILLER_0_39_352
*473 FILLER_0_39_416
*474 FILLER_0_39_66
*475 FILLER_0_39_72
*476 FILLER_0_3_136
*477 FILLER_0_3_142
*478 FILLER_0_3_2
*479 FILLER_0_3_206
*480 FILLER_0_3_212
*481 FILLER_0_3_276
*482 FILLER_0_3_282
*483 FILLER_0_3_346
*484 FILLER_0_3_352
*485 FILLER_0_3_416
*486 FILLER_0_3_66
*487 FILLER_0_3_72
*488 FILLER_0_40_101
*489 FILLER_0_40_107
*490 FILLER_0_40_171
*491 FILLER_0_40_177
*492 FILLER_0_40_2
*493 FILLER_0_40_241
*494 FILLER_0_40_247
*495 FILLER_0_40_311
*496 FILLER_0_40_317
*497 FILLER_0_40_34
*498 FILLER_0_40_37
*499 FILLER_0_40_381
*500 FILLER_0_40_387
*501 FILLER_0_40_419
*502 FILLER_0_41_136
*503 FILLER_0_41_142
*504 FILLER_0_41_2
*505 FILLER_0_41_206
*506 FILLER_0_41_212
*507 FILLER_0_41_276
*508 FILLER_0_41_282
*509 FILLER_0_41_346
*510 FILLER_0_41_352
*511 FILLER_0_41_416
*512 FILLER_0_41_66
*513 FILLER_0_41_72
*514 FILLER_0_42_101
*515 FILLER_0_42_107
*516 FILLER_0_42_171
*517 FILLER_0_42_177
*518 FILLER_0_42_2
*519 FILLER_0_42_241
*520 FILLER_0_42_247
*521 FILLER_0_42_311
*522 FILLER_0_42_317
*523 FILLER_0_42_34
*524 FILLER_0_42_37
*525 FILLER_0_42_381
*526 FILLER_0_42_387
*527 FILLER_0_42_419
*528 FILLER_0_43_136
*529 FILLER_0_43_142
*530 FILLER_0_43_2
*531 FILLER_0_43_206
*532 FILLER_0_43_212
*533 FILLER_0_43_276
*534 FILLER_0_43_282
*535 FILLER_0_43_346
*536 FILLER_0_43_352
*537 FILLER_0_43_416
*538 FILLER_0_43_66
*539 FILLER_0_43_72
*540 FILLER_0_44_101
*541 FILLER_0_44_107
*542 FILLER_0_44_171
*543 FILLER_0_44_177
*544 FILLER_0_44_2
*545 FILLER_0_44_241
*546 FILLER_0_44_247
*547 FILLER_0_44_311
*548 FILLER_0_44_317
*549 FILLER_0_44_34
*550 FILLER_0_44_37
*551 FILLER_0_44_381
*552 FILLER_0_44_387
*553 FILLER_0_44_419
*554 FILLER_0_45_136
*555 FILLER_0_45_142
*556 FILLER_0_45_2
*557 FILLER_0_45_206
*558 FILLER_0_45_212
*559 FILLER_0_45_276
*560 FILLER_0_45_282
*561 FILLER_0_45_346
*562 FILLER_0_45_352
*563 FILLER_0_45_416
*564 FILLER_0_45_66
*565 FILLER_0_45_72
*566 FILLER_0_46_101
*567 FILLER_0_46_107
*568 FILLER_0_46_171
*569 FILLER_0_46_177
*570 FILLER_0_46_2
*571 FILLER_0_46_241
*572 FILLER_0_46_247
*573 FILLER_0_46_311
*574 FILLER_0_46_317
*575 FILLER_0_46_34
*576 FILLER_0_46_37
*577 FILLER_0_46_381
*578 FILLER_0_46_387
*579 FILLER_0_46_419
*580 FILLER_0_47_136
*581 FILLER_0_47_142
*582 FILLER_0_47_2
*583 FILLER_0_47_206
*584 FILLER_0_47_212
*585 FILLER_0_47_276
*586 FILLER_0_47_282
*587 FILLER_0_47_346
*588 FILLER_0_47_352
*589 FILLER_0_47_416
*590 FILLER_0_47_66
*591 FILLER_0_47_72
*592 FILLER_0_48_101
*593 FILLER_0_48_107
*594 FILLER_0_48_171
*595 FILLER_0_48_177
*596 FILLER_0_48_2
*597 FILLER_0_48_241
*598 FILLER_0_48_247
*599 FILLER_0_48_311
*600 FILLER_0_48_317
*601 FILLER_0_48_34
*602 FILLER_0_48_37
*603 FILLER_0_48_381
*604 FILLER_0_48_387
*605 FILLER_0_48_419
*606 FILLER_0_49_136
*607 FILLER_0_49_142
*608 FILLER_0_49_2
*609 FILLER_0_49_206
*610 FILLER_0_49_212
*611 FILLER_0_49_276
*612 FILLER_0_49_282
*613 FILLER_0_49_346
*614 FILLER_0_49_352
*615 FILLER_0_49_416
*616 FILLER_0_49_66
*617 FILLER_0_49_72
*618 FILLER_0_4_101
*619 FILLER_0_4_107
*620 FILLER_0_4_171
*621 FILLER_0_4_177
*622 FILLER_0_4_2
*623 FILLER_0_4_241
*624 FILLER_0_4_247
*625 FILLER_0_4_311
*626 FILLER_0_4_317
*627 FILLER_0_4_34
*628 FILLER_0_4_37
*629 FILLER_0_4_381
*630 FILLER_0_4_387
*631 FILLER_0_4_419
*632 FILLER_0_50_101
*633 FILLER_0_50_107
*634 FILLER_0_50_171
*635 FILLER_0_50_177
*636 FILLER_0_50_2
*637 FILLER_0_50_241
*638 FILLER_0_50_247
*639 FILLER_0_50_311
*640 FILLER_0_50_317
*641 FILLER_0_50_34
*642 FILLER_0_50_37
*643 FILLER_0_50_381
*644 FILLER_0_50_387
*645 FILLER_0_50_419
*646 FILLER_0_51_136
*647 FILLER_0_51_142
*648 FILLER_0_51_2
*649 FILLER_0_51_206
*650 FILLER_0_51_212
*651 FILLER_0_51_276
*652 FILLER_0_51_282
*653 FILLER_0_51_346
*654 FILLER_0_51_352
*655 FILLER_0_51_416
*656 FILLER_0_51_66
*657 FILLER_0_51_72
*658 FILLER_0_52_101
*659 FILLER_0_52_107
*660 FILLER_0_52_171
*661 FILLER_0_52_177
*662 FILLER_0_52_2
*663 FILLER_0_52_241
*664 FILLER_0_52_247
*665 FILLER_0_52_311
*666 FILLER_0_52_317
*667 FILLER_0_52_34
*668 FILLER_0_52_37
*669 FILLER_0_52_381
*670 FILLER_0_52_387
*671 FILLER_0_52_419
*672 FILLER_0_53_136
*673 FILLER_0_53_142
*674 FILLER_0_53_2
*675 FILLER_0_53_206
*676 FILLER_0_53_212
*677 FILLER_0_53_276
*678 FILLER_0_53_282
*679 FILLER_0_53_346
*680 FILLER_0_53_352
*681 FILLER_0_53_416
*682 FILLER_0_53_66
*683 FILLER_0_53_72
*684 FILLER_0_54_104
*685 FILLER_0_54_138
*686 FILLER_0_54_172
*687 FILLER_0_54_2
*688 FILLER_0_54_206
*689 FILLER_0_54_240
*690 FILLER_0_54_274
*691 FILLER_0_54_308
*692 FILLER_0_54_342
*693 FILLER_0_54_36
*694 FILLER_0_54_376
*695 FILLER_0_54_410
*696 FILLER_0_54_418
*697 FILLER_0_54_70
*698 FILLER_0_5_136
*699 FILLER_0_5_142
*700 FILLER_0_5_2
*701 FILLER_0_5_206
*702 FILLER_0_5_212
*703 FILLER_0_5_276
*704 FILLER_0_5_282
*705 FILLER_0_5_346
*706 FILLER_0_5_352
*707 FILLER_0_5_416
*708 FILLER_0_5_66
*709 FILLER_0_5_72
*710 FILLER_0_6_101
*711 FILLER_0_6_107
*712 FILLER_0_6_171
*713 FILLER_0_6_177
*714 FILLER_0_6_2
*715 FILLER_0_6_241
*716 FILLER_0_6_247
*717 FILLER_0_6_311
*718 FILLER_0_6_317
*719 FILLER_0_6_34
*720 FILLER_0_6_37
*721 FILLER_0_6_381
*722 FILLER_0_6_387
*723 FILLER_0_6_419
*724 FILLER_0_7_136
*725 FILLER_0_7_142
*726 FILLER_0_7_2
*727 FILLER_0_7_206
*728 FILLER_0_7_212
*729 FILLER_0_7_276
*730 FILLER_0_7_282
*731 FILLER_0_7_346
*732 FILLER_0_7_352
*733 FILLER_0_7_416
*734 FILLER_0_7_66
*735 FILLER_0_7_72
*736 FILLER_0_8_101
*737 FILLER_0_8_107
*738 FILLER_0_8_171
*739 FILLER_0_8_177
*740 FILLER_0_8_2
*741 FILLER_0_8_241
*742 FILLER_0_8_247
*743 FILLER_0_8_311
*744 FILLER_0_8_317
*745 FILLER_0_8_34
*746 FILLER_0_8_37
*747 FILLER_0_8_381
*748 FILLER_0_8_387
*749 FILLER_0_8_419
*750 FILLER_0_9_136
*751 FILLER_0_9_142
*752 FILLER_0_9_2
*753 FILLER_0_9_206
*754 FILLER_0_9_212
*755 FILLER_0_9_276
*756 FILLER_0_9_282
*757 FILLER_0_9_346
*758 FILLER_0_9_352
*759 FILLER_0_9_416
*760 FILLER_0_9_66
*761 FILLER_0_9_72
*762 PHY_EDGE_ROW_0_Left_55
*763 PHY_EDGE_ROW_0_Right_0
*764 PHY_EDGE_ROW_10_Left_65
*765 PHY_EDGE_ROW_10_Right_10
*766 PHY_EDGE_ROW_11_Left_66
*767 PHY_EDGE_ROW_11_Right_11
*768 PHY_EDGE_ROW_12_Left_67
*769 PHY_EDGE_ROW_12_Right_12
*770 PHY_EDGE_ROW_13_Left_68
*771 PHY_EDGE_ROW_13_Right_13
*772 PHY_EDGE_ROW_14_Left_69
*773 PHY_EDGE_ROW_14_Right_14
*774 PHY_EDGE_ROW_15_Left_70
*775 PHY_EDGE_ROW_15_Right_15
*776 PHY_EDGE_ROW_16_Left_71
*777 PHY_EDGE_ROW_16_Right_16
*778 PHY_EDGE_ROW_17_Left_72
*779 PHY_EDGE_ROW_17_Right_17
*780 PHY_EDGE_ROW_18_Left_73
*781 PHY_EDGE_ROW_18_Right_18
*782 PHY_EDGE_ROW_19_Left_74
*783 PHY_EDGE_ROW_19_Right_19
*784 PHY_EDGE_ROW_1_Left_56
*785 PHY_EDGE_ROW_1_Right_1
*786 PHY_EDGE_ROW_20_Left_75
*787 PHY_EDGE_ROW_20_Right_20
*788 PHY_EDGE_ROW_21_Left_76
*789 PHY_EDGE_ROW_21_Right_21
*790 PHY_EDGE_ROW_22_Left_77
*791 PHY_EDGE_ROW_22_Right_22
*792 PHY_EDGE_ROW_23_Left_78
*793 PHY_EDGE_ROW_23_Right_23
*794 PHY_EDGE_ROW_24_Left_79
*795 PHY_EDGE_ROW_24_Right_24
*796 PHY_EDGE_ROW_25_Left_80
*797 PHY_EDGE_ROW_25_Right_25
*798 PHY_EDGE_ROW_26_Left_81
*799 PHY_EDGE_ROW_26_Right_26
*800 PHY_EDGE_ROW_27_Left_82
*801 PHY_EDGE_ROW_27_Right_27
*802 PHY_EDGE_ROW_28_Left_83
*803 PHY_EDGE_ROW_28_Right_28
*804 PHY_EDGE_ROW_29_Left_84
*805 PHY_EDGE_ROW_29_Right_29
*806 PHY_EDGE_ROW_2_Left_57
*807 PHY_EDGE_ROW_2_Right_2
*808 PHY_EDGE_ROW_30_Left_85
*809 PHY_EDGE_ROW_30_Right_30
*810 PHY_EDGE_ROW_31_Left_86
*811 PHY_EDGE_ROW_31_Right_31
*812 PHY_EDGE_ROW_32_Left_87
*813 PHY_EDGE_ROW_32_Right_32
*814 PHY_EDGE_ROW_33_Left_88
*815 PHY_EDGE_ROW_33_Right_33
*816 PHY_EDGE_ROW_34_Left_89
*817 PHY_EDGE_ROW_34_Right_34
*818 PHY_EDGE_ROW_35_Left_90
*819 PHY_EDGE_ROW_35_Right_35
*820 PHY_EDGE_ROW_36_Left_91
*821 PHY_EDGE_ROW_36_Right_36
*822 PHY_EDGE_ROW_37_Left_92
*823 PHY_EDGE_ROW_37_Right_37
*824 PHY_EDGE_ROW_38_Left_93
*825 PHY_EDGE_ROW_38_Right_38
*826 PHY_EDGE_ROW_39_Left_94
*827 PHY_EDGE_ROW_39_Right_39
*828 PHY_EDGE_ROW_3_Left_58
*829 PHY_EDGE_ROW_3_Right_3
*830 PHY_EDGE_ROW_40_Left_95
*831 PHY_EDGE_ROW_40_Right_40
*832 PHY_EDGE_ROW_41_Left_96
*833 PHY_EDGE_ROW_41_Right_41
*834 PHY_EDGE_ROW_42_Left_97
*835 PHY_EDGE_ROW_42_Right_42
*836 PHY_EDGE_ROW_43_Left_98
*837 PHY_EDGE_ROW_43_Right_43
*838 PHY_EDGE_ROW_44_Left_99
*839 PHY_EDGE_ROW_44_Right_44
*840 PHY_EDGE_ROW_45_Left_100
*841 PHY_EDGE_ROW_45_Right_45
*842 PHY_EDGE_ROW_46_Left_101
*843 PHY_EDGE_ROW_46_Right_46
*844 PHY_EDGE_ROW_47_Left_102
*845 PHY_EDGE_ROW_47_Right_47
*846 PHY_EDGE_ROW_48_Left_103
*847 PHY_EDGE_ROW_48_Right_48
*848 PHY_EDGE_ROW_49_Left_104
*849 PHY_EDGE_ROW_49_Right_49
*850 PHY_EDGE_ROW_4_Left_59
*851 PHY_EDGE_ROW_4_Right_4
*852 PHY_EDGE_ROW_50_Left_105
*853 PHY_EDGE_ROW_50_Right_50
*854 PHY_EDGE_ROW_51_Left_106
*855 PHY_EDGE_ROW_51_Right_51
*856 PHY_EDGE_ROW_52_Left_107
*857 PHY_EDGE_ROW_52_Right_52
*858 PHY_EDGE_ROW_53_Left_108
*859 PHY_EDGE_ROW_53_Right_53
*860 PHY_EDGE_ROW_54_Left_109
*861 PHY_EDGE_ROW_54_Right_54
*862 PHY_EDGE_ROW_5_Left_60
*863 PHY_EDGE_ROW_5_Right_5
*864 PHY_EDGE_ROW_6_Left_61
*865 PHY_EDGE_ROW_6_Right_6
*866 PHY_EDGE_ROW_7_Left_62
*867 PHY_EDGE_ROW_7_Right_7
*868 PHY_EDGE_ROW_8_Left_63
*869 PHY_EDGE_ROW_8_Right_8
*870 PHY_EDGE_ROW_9_Left_64
*871 PHY_EDGE_ROW_9_Right_9
*872 TAP_TAPCELL_ROW_0_110
*873 TAP_TAPCELL_ROW_0_111
*874 TAP_TAPCELL_ROW_0_112
*875 TAP_TAPCELL_ROW_0_113
*876 TAP_TAPCELL_ROW_0_114
*877 TAP_TAPCELL_ROW_0_115
*878 TAP_TAPCELL_ROW_0_116
*879 TAP_TAPCELL_ROW_0_117
*880 TAP_TAPCELL_ROW_0_118
*881 TAP_TAPCELL_ROW_0_119
*882 TAP_TAPCELL_ROW_0_120
*883 TAP_TAPCELL_ROW_0_121
*884 TAP_TAPCELL_ROW_10_171
*885 TAP_TAPCELL_ROW_10_172
*886 TAP_TAPCELL_ROW_10_173
*887 TAP_TAPCELL_ROW_10_174
*888 TAP_TAPCELL_ROW_10_175
*889 TAP_TAPCELL_ROW_10_176
*890 TAP_TAPCELL_ROW_11_177
*891 TAP_TAPCELL_ROW_11_178
*892 TAP_TAPCELL_ROW_11_179
*893 TAP_TAPCELL_ROW_11_180
*894 TAP_TAPCELL_ROW_11_181
*895 TAP_TAPCELL_ROW_12_182
*896 TAP_TAPCELL_ROW_12_183
*897 TAP_TAPCELL_ROW_12_184
*898 TAP_TAPCELL_ROW_12_185
*899 TAP_TAPCELL_ROW_12_186
*900 TAP_TAPCELL_ROW_12_187
*901 TAP_TAPCELL_ROW_13_188
*902 TAP_TAPCELL_ROW_13_189
*903 TAP_TAPCELL_ROW_13_190
*904 TAP_TAPCELL_ROW_13_191
*905 TAP_TAPCELL_ROW_13_192
*906 TAP_TAPCELL_ROW_14_193
*907 TAP_TAPCELL_ROW_14_194
*908 TAP_TAPCELL_ROW_14_195
*909 TAP_TAPCELL_ROW_14_196
*910 TAP_TAPCELL_ROW_14_197
*911 TAP_TAPCELL_ROW_14_198
*912 TAP_TAPCELL_ROW_15_199
*913 TAP_TAPCELL_ROW_15_200
*914 TAP_TAPCELL_ROW_15_201
*915 TAP_TAPCELL_ROW_15_202
*916 TAP_TAPCELL_ROW_15_203
*917 TAP_TAPCELL_ROW_16_204
*918 TAP_TAPCELL_ROW_16_205
*919 TAP_TAPCELL_ROW_16_206
*920 TAP_TAPCELL_ROW_16_207
*921 TAP_TAPCELL_ROW_16_208
*922 TAP_TAPCELL_ROW_16_209
*923 TAP_TAPCELL_ROW_17_210
*924 TAP_TAPCELL_ROW_17_211
*925 TAP_TAPCELL_ROW_17_212
*926 TAP_TAPCELL_ROW_17_213
*927 TAP_TAPCELL_ROW_17_214
*928 TAP_TAPCELL_ROW_18_215
*929 TAP_TAPCELL_ROW_18_216
*930 TAP_TAPCELL_ROW_18_217
*931 TAP_TAPCELL_ROW_18_218
*932 TAP_TAPCELL_ROW_18_219
*933 TAP_TAPCELL_ROW_18_220
*934 TAP_TAPCELL_ROW_19_221
*935 TAP_TAPCELL_ROW_19_222
*936 TAP_TAPCELL_ROW_19_223
*937 TAP_TAPCELL_ROW_19_224
*938 TAP_TAPCELL_ROW_19_225
*939 TAP_TAPCELL_ROW_1_122
*940 TAP_TAPCELL_ROW_1_123
*941 TAP_TAPCELL_ROW_1_124
*942 TAP_TAPCELL_ROW_1_125
*943 TAP_TAPCELL_ROW_1_126
*944 TAP_TAPCELL_ROW_20_226
*945 TAP_TAPCELL_ROW_20_227
*946 TAP_TAPCELL_ROW_20_228
*947 TAP_TAPCELL_ROW_20_229
*948 TAP_TAPCELL_ROW_20_230
*949 TAP_TAPCELL_ROW_20_231
*950 TAP_TAPCELL_ROW_21_232
*951 TAP_TAPCELL_ROW_21_233
*952 TAP_TAPCELL_ROW_21_234
*953 TAP_TAPCELL_ROW_21_235
*954 TAP_TAPCELL_ROW_21_236
*955 TAP_TAPCELL_ROW_22_237
*956 TAP_TAPCELL_ROW_22_238
*957 TAP_TAPCELL_ROW_22_239
*958 TAP_TAPCELL_ROW_22_240
*959 TAP_TAPCELL_ROW_22_241
*960 TAP_TAPCELL_ROW_22_242
*961 TAP_TAPCELL_ROW_23_243
*962 TAP_TAPCELL_ROW_23_244
*963 TAP_TAPCELL_ROW_23_245
*964 TAP_TAPCELL_ROW_23_246
*965 TAP_TAPCELL_ROW_23_247
*966 TAP_TAPCELL_ROW_24_248
*967 TAP_TAPCELL_ROW_24_249
*968 TAP_TAPCELL_ROW_24_250
*969 TAP_TAPCELL_ROW_24_251
*970 TAP_TAPCELL_ROW_24_252
*971 TAP_TAPCELL_ROW_24_253
*972 TAP_TAPCELL_ROW_25_254
*973 TAP_TAPCELL_ROW_25_255
*974 TAP_TAPCELL_ROW_25_256
*975 TAP_TAPCELL_ROW_25_257
*976 TAP_TAPCELL_ROW_25_258
*977 TAP_TAPCELL_ROW_26_259
*978 TAP_TAPCELL_ROW_26_260
*979 TAP_TAPCELL_ROW_26_261
*980 TAP_TAPCELL_ROW_26_262
*981 TAP_TAPCELL_ROW_26_263
*982 TAP_TAPCELL_ROW_26_264
*983 TAP_TAPCELL_ROW_27_265
*984 TAP_TAPCELL_ROW_27_266
*985 TAP_TAPCELL_ROW_27_267
*986 TAP_TAPCELL_ROW_27_268
*987 TAP_TAPCELL_ROW_27_269
*988 TAP_TAPCELL_ROW_28_270
*989 TAP_TAPCELL_ROW_28_271
*990 TAP_TAPCELL_ROW_28_272
*991 TAP_TAPCELL_ROW_28_273
*992 TAP_TAPCELL_ROW_28_274
*993 TAP_TAPCELL_ROW_28_275
*994 TAP_TAPCELL_ROW_29_276
*995 TAP_TAPCELL_ROW_29_277
*996 TAP_TAPCELL_ROW_29_278
*997 TAP_TAPCELL_ROW_29_279
*998 TAP_TAPCELL_ROW_29_280
*999 TAP_TAPCELL_ROW_2_127
*1000 TAP_TAPCELL_ROW_2_128
*1001 TAP_TAPCELL_ROW_2_129
*1002 TAP_TAPCELL_ROW_2_130
*1003 TAP_TAPCELL_ROW_2_131
*1004 TAP_TAPCELL_ROW_2_132
*1005 TAP_TAPCELL_ROW_30_281
*1006 TAP_TAPCELL_ROW_30_282
*1007 TAP_TAPCELL_ROW_30_283
*1008 TAP_TAPCELL_ROW_30_284
*1009 TAP_TAPCELL_ROW_30_285
*1010 TAP_TAPCELL_ROW_30_286
*1011 TAP_TAPCELL_ROW_31_287
*1012 TAP_TAPCELL_ROW_31_288
*1013 TAP_TAPCELL_ROW_31_289
*1014 TAP_TAPCELL_ROW_31_290
*1015 TAP_TAPCELL_ROW_31_291
*1016 TAP_TAPCELL_ROW_32_292
*1017 TAP_TAPCELL_ROW_32_293
*1018 TAP_TAPCELL_ROW_32_294
*1019 TAP_TAPCELL_ROW_32_295
*1020 TAP_TAPCELL_ROW_32_296
*1021 TAP_TAPCELL_ROW_32_297
*1022 TAP_TAPCELL_ROW_33_298
*1023 TAP_TAPCELL_ROW_33_299
*1024 TAP_TAPCELL_ROW_33_300
*1025 TAP_TAPCELL_ROW_33_301
*1026 TAP_TAPCELL_ROW_33_302
*1027 TAP_TAPCELL_ROW_34_303
*1028 TAP_TAPCELL_ROW_34_304
*1029 TAP_TAPCELL_ROW_34_305
*1030 TAP_TAPCELL_ROW_34_306
*1031 TAP_TAPCELL_ROW_34_307
*1032 TAP_TAPCELL_ROW_34_308
*1033 TAP_TAPCELL_ROW_35_309
*1034 TAP_TAPCELL_ROW_35_310
*1035 TAP_TAPCELL_ROW_35_311
*1036 TAP_TAPCELL_ROW_35_312
*1037 TAP_TAPCELL_ROW_35_313
*1038 TAP_TAPCELL_ROW_36_314
*1039 TAP_TAPCELL_ROW_36_315
*1040 TAP_TAPCELL_ROW_36_316
*1041 TAP_TAPCELL_ROW_36_317
*1042 TAP_TAPCELL_ROW_36_318
*1043 TAP_TAPCELL_ROW_36_319
*1044 TAP_TAPCELL_ROW_37_320
*1045 TAP_TAPCELL_ROW_37_321
*1046 TAP_TAPCELL_ROW_37_322
*1047 TAP_TAPCELL_ROW_37_323
*1048 TAP_TAPCELL_ROW_37_324
*1049 TAP_TAPCELL_ROW_38_325
*1050 TAP_TAPCELL_ROW_38_326
*1051 TAP_TAPCELL_ROW_38_327
*1052 TAP_TAPCELL_ROW_38_328
*1053 TAP_TAPCELL_ROW_38_329
*1054 TAP_TAPCELL_ROW_38_330
*1055 TAP_TAPCELL_ROW_39_331
*1056 TAP_TAPCELL_ROW_39_332
*1057 TAP_TAPCELL_ROW_39_333
*1058 TAP_TAPCELL_ROW_39_334
*1059 TAP_TAPCELL_ROW_39_335
*1060 TAP_TAPCELL_ROW_3_133
*1061 TAP_TAPCELL_ROW_3_134
*1062 TAP_TAPCELL_ROW_3_135
*1063 TAP_TAPCELL_ROW_3_136
*1064 TAP_TAPCELL_ROW_3_137
*1065 TAP_TAPCELL_ROW_40_336
*1066 TAP_TAPCELL_ROW_40_337
*1067 TAP_TAPCELL_ROW_40_338
*1068 TAP_TAPCELL_ROW_40_339
*1069 TAP_TAPCELL_ROW_40_340
*1070 TAP_TAPCELL_ROW_40_341
*1071 TAP_TAPCELL_ROW_41_342
*1072 TAP_TAPCELL_ROW_41_343
*1073 TAP_TAPCELL_ROW_41_344
*1074 TAP_TAPCELL_ROW_41_345
*1075 TAP_TAPCELL_ROW_41_346
*1076 TAP_TAPCELL_ROW_42_347
*1077 TAP_TAPCELL_ROW_42_348
*1078 TAP_TAPCELL_ROW_42_349
*1079 TAP_TAPCELL_ROW_42_350
*1080 TAP_TAPCELL_ROW_42_351
*1081 TAP_TAPCELL_ROW_42_352
*1082 TAP_TAPCELL_ROW_43_353
*1083 TAP_TAPCELL_ROW_43_354
*1084 TAP_TAPCELL_ROW_43_355
*1085 TAP_TAPCELL_ROW_43_356
*1086 TAP_TAPCELL_ROW_43_357
*1087 TAP_TAPCELL_ROW_44_358
*1088 TAP_TAPCELL_ROW_44_359
*1089 TAP_TAPCELL_ROW_44_360
*1090 TAP_TAPCELL_ROW_44_361
*1091 TAP_TAPCELL_ROW_44_362
*1092 TAP_TAPCELL_ROW_44_363
*1093 TAP_TAPCELL_ROW_45_364
*1094 TAP_TAPCELL_ROW_45_365
*1095 TAP_TAPCELL_ROW_45_366
*1096 TAP_TAPCELL_ROW_45_367
*1097 TAP_TAPCELL_ROW_45_368
*1098 TAP_TAPCELL_ROW_46_369
*1099 TAP_TAPCELL_ROW_46_370
*1100 TAP_TAPCELL_ROW_46_371
*1101 TAP_TAPCELL_ROW_46_372
*1102 TAP_TAPCELL_ROW_46_373
*1103 TAP_TAPCELL_ROW_46_374
*1104 TAP_TAPCELL_ROW_47_375
*1105 TAP_TAPCELL_ROW_47_376
*1106 TAP_TAPCELL_ROW_47_377
*1107 TAP_TAPCELL_ROW_47_378
*1108 TAP_TAPCELL_ROW_47_379
*1109 TAP_TAPCELL_ROW_48_380
*1110 TAP_TAPCELL_ROW_48_381
*1111 TAP_TAPCELL_ROW_48_382
*1112 TAP_TAPCELL_ROW_48_383
*1113 TAP_TAPCELL_ROW_48_384
*1114 TAP_TAPCELL_ROW_48_385
*1115 TAP_TAPCELL_ROW_49_386
*1116 TAP_TAPCELL_ROW_49_387
*1117 TAP_TAPCELL_ROW_49_388
*1118 TAP_TAPCELL_ROW_49_389
*1119 TAP_TAPCELL_ROW_49_390
*1120 TAP_TAPCELL_ROW_4_138
*1121 TAP_TAPCELL_ROW_4_139
*1122 TAP_TAPCELL_ROW_4_140
*1123 TAP_TAPCELL_ROW_4_141
*1124 TAP_TAPCELL_ROW_4_142
*1125 TAP_TAPCELL_ROW_4_143
*1126 TAP_TAPCELL_ROW_50_391
*1127 TAP_TAPCELL_ROW_50_392
*1128 TAP_TAPCELL_ROW_50_393
*1129 TAP_TAPCELL_ROW_50_394
*1130 TAP_TAPCELL_ROW_50_395
*1131 TAP_TAPCELL_ROW_50_396
*1132 TAP_TAPCELL_ROW_51_397
*1133 TAP_TAPCELL_ROW_51_398
*1134 TAP_TAPCELL_ROW_51_399
*1135 TAP_TAPCELL_ROW_51_400
*1136 TAP_TAPCELL_ROW_51_401
*1137 TAP_TAPCELL_ROW_52_402
*1138 TAP_TAPCELL_ROW_52_403
*1139 TAP_TAPCELL_ROW_52_404
*1140 TAP_TAPCELL_ROW_52_405
*1141 TAP_TAPCELL_ROW_52_406
*1142 TAP_TAPCELL_ROW_52_407
*1143 TAP_TAPCELL_ROW_53_408
*1144 TAP_TAPCELL_ROW_53_409
*1145 TAP_TAPCELL_ROW_53_410
*1146 TAP_TAPCELL_ROW_53_411
*1147 TAP_TAPCELL_ROW_53_412
*1148 TAP_TAPCELL_ROW_54_413
*1149 TAP_TAPCELL_ROW_54_414
*1150 TAP_TAPCELL_ROW_54_415
*1151 TAP_TAPCELL_ROW_54_416
*1152 TAP_TAPCELL_ROW_54_417
*1153 TAP_TAPCELL_ROW_54_418
*1154 TAP_TAPCELL_ROW_54_419
*1155 TAP_TAPCELL_ROW_54_420
*1156 TAP_TAPCELL_ROW_54_421
*1157 TAP_TAPCELL_ROW_54_422
*1158 TAP_TAPCELL_ROW_54_423
*1159 TAP_TAPCELL_ROW_54_424
*1160 TAP_TAPCELL_ROW_5_144
*1161 TAP_TAPCELL_ROW_5_145
*1162 TAP_TAPCELL_ROW_5_146
*1163 TAP_TAPCELL_ROW_5_147
*1164 TAP_TAPCELL_ROW_5_148
*1165 TAP_TAPCELL_ROW_6_149
*1166 TAP_TAPCELL_ROW_6_150
*1167 TAP_TAPCELL_ROW_6_151
*1168 TAP_TAPCELL_ROW_6_152
*1169 TAP_TAPCELL_ROW_6_153
*1170 TAP_TAPCELL_ROW_6_154
*1171 TAP_TAPCELL_ROW_7_155
*1172 TAP_TAPCELL_ROW_7_156
*1173 TAP_TAPCELL_ROW_7_157
*1174 TAP_TAPCELL_ROW_7_158
*1175 TAP_TAPCELL_ROW_7_159
*1176 TAP_TAPCELL_ROW_8_160
*1177 TAP_TAPCELL_ROW_8_161
*1178 TAP_TAPCELL_ROW_8_162
*1179 TAP_TAPCELL_ROW_8_163
*1180 TAP_TAPCELL_ROW_8_164
*1181 TAP_TAPCELL_ROW_8_165
*1182 TAP_TAPCELL_ROW_9_166
*1183 TAP_TAPCELL_ROW_9_167
*1184 TAP_TAPCELL_ROW_9_168
*1185 TAP_TAPCELL_ROW_9_169
*1186 TAP_TAPCELL_ROW_9_170
*1187 _01_
*1188 _02_
*1189 _02__6
*1190 _03_
*1191 _04_
*1192 _05_
*1193 _06_
*1194 clkbuf_0_ctrl_in\[0\]
*1195 clkbuf_1_0__f_ctrl_in\[0\]
*1196 clkbuf_1_1__f_ctrl_in\[0\]
*1197 ctrl_4
*1198 ctrl_5
*1199 ctrl_7
*1200 ctrl_8
*1201 fanout1
*1202 input1
*1203 output2
*1204 output3

*PORTS
ctrl_in[0] I
ctrl_in[1] I
ctrl_oeb[0] O
ctrl_oeb[1] O
ctrl_out[0] O
ctrl_out[1] O
reset O
resetn O

*D_NET *1 0.00951081
*CONN
*P ctrl_in[0] I
*I *1194:I I *D gf180mcu_fd_sc_mcu7t5v0__clkbuf_16
*I *25:I I *D gf180mcu_fd_sc_mcu7t5v0__antenna
*CAP
1 ctrl_in[0] 0.0042509
2 *1194:I 7.60627e-05
3 *25:I 0
4 *1:9 0.00432696
5 *1194:I *12:13 1.44832e-05
6 *1:9 *1191:SETN 2.30518e-05
7 *1:9 *1192:CLK 0.000510019
8 *1:9 *1193:CLK 0.000147305
9 *1:9 *12:13 0.000162031
*RES
1 ctrl_in[0] *1:9 36.23 
2 *1:9 *25:I 4.5 
3 *1:9 *1194:I 5.108 
*END

*D_NET *2 0.00104576
*CONN
*P ctrl_in[1] I
*I *1202:I I *D gf180mcu_fd_sc_mcu7t5v0__clkbuf_2
*I *27:I I *D gf180mcu_fd_sc_mcu7t5v0__antenna
*CAP
1 ctrl_in[1] 0.000214599
2 *1202:I 3.13662e-05
3 *27:I 0.00024484
4 *2:5 0.000490805
5 *27:I reset 9.98669e-06
6 *2:5 reset 5.41611e-05
*RES
1 ctrl_in[1] *2:5 1.558 
2 *2:5 *27:I 10.368 
3 *2:5 *1202:I 9.228 
*END

*D_NET *3 0.00132519
*CONN
*P ctrl_oeb[0] O
*I *1200:Z O *D gf180mcu_fd_sc_mcu7t5v0__tieh
*CAP
1 ctrl_oeb[0] 0.000548011
2 *1200:Z 0.000548011
3 ctrl_oeb[0] ctrl_out[0] 0.000114586
4 ctrl_oeb[0] ctrl_out[1] 0.000114586
*RES
1 *1200:Z ctrl_oeb[0] 8.87 
*END

*D_NET *4 0.000703991
*CONN
*P ctrl_oeb[1] O
*I *1199:Z O *D gf180mcu_fd_sc_mcu7t5v0__tieh
*CAP
1 ctrl_oeb[1] 0.000314009
2 *1199:Z 0.000314009
3 ctrl_oeb[1] resetn 7.59726e-05
*RES
1 *1199:Z ctrl_oeb[1] 11.242 
*END

*D_NET *5 0.00118547
*CONN
*P ctrl_out[0] O
*I *1197:ZN O *D gf180mcu_fd_sc_mcu7t5v0__tiel
*CAP
1 ctrl_out[0] 0.000535442
2 *1197:ZN 0.000535442
3 ctrl_oeb[0] ctrl_out[0] 0.000114586
*RES
1 *1197:ZN ctrl_out[0] 8.414 
*END

*D_NET *6 0.00122921
*CONN
*P ctrl_out[1] O
*I *1198:ZN O *D gf180mcu_fd_sc_mcu7t5v0__tiel
*CAP
1 ctrl_out[1] 0.000557311
2 *1198:ZN 0.000557311
3 ctrl_oeb[0] ctrl_out[1] 0.000114586
*RES