*SPEF "ieee 1481-1999"
*DESIGN "pcpi_approx_mul"
*DATE "11:11:11 Fri 11 11, 1111"
*VENDOR "OpenRCX"
*PROGRAM "Parallel Extraction"
*VERSION "1.0"
*DESIGN_FLOW "NAME_SCOPE LOCAL" "PIN_CAP NONE"
*DIVIDER /
*DELIMITER :
*BUS_DELIMITER []
*T_UNIT 1 NS
*C_UNIT 1 PF
*R_UNIT 1 OHM
*L_UNIT 1 HENRY

*NAME_MAP
*1 clk
*2 pcpi_insn[0]
*3 pcpi_insn[10]
*4 pcpi_insn[11]
*5 pcpi_insn[12]
*6 pcpi_insn[13]
*7 pcpi_insn[14]
*8 pcpi_insn[15]
*9 pcpi_insn[16]
*10 pcpi_insn[17]
*11 pcpi_insn[18]
*12 pcpi_insn[19]
*13 pcpi_insn[1]
*14 pcpi_insn[20]
*15 pcpi_insn[21]
*16 pcpi_insn[22]
*17 pcpi_insn[23]
*18 pcpi_insn[24]
*19 pcpi_insn[25]
*20 pcpi_insn[26]
*21 pcpi_insn[27]
*22 pcpi_insn[28]
*23 pcpi_insn[29]
*24 pcpi_insn[2]
*25 pcpi_insn[30]
*26 pcpi_insn[31]
*27 pcpi_insn[3]
*28 pcpi_insn[4]
*29 pcpi_insn[5]
*30 pcpi_insn[6]
*31 pcpi_insn[7]
*32 pcpi_insn[8]
*33 pcpi_insn[9]
*34 pcpi_rd[0]
*35 pcpi_rd[10]
*36 pcpi_rd[11]
*37 pcpi_rd[12]
*38 pcpi_rd[13]
*39 pcpi_rd[14]
*40 pcpi_rd[15]
*41 pcpi_rd[16]
*42 pcpi_rd[17]
*43 pcpi_rd[18]
*44 pcpi_rd[19]
*45 pcpi_rd[1]
*46 pcpi_rd[20]
*47 pcpi_rd[21]
*48 pcpi_rd[22]
*49 pcpi_rd[23]
*50 pcpi_rd[24]
*51 pcpi_rd[25]
*52 pcpi_rd[26]
*53 pcpi_rd[27]
*54 pcpi_rd[28]
*55 pcpi_rd[29]
*56 pcpi_rd[2]
*57 pcpi_rd[30]
*58 pcpi_rd[31]
*59 pcpi_rd[3]
*60 pcpi_rd[4]
*61 pcpi_rd[5]
*62 pcpi_rd[6]
*63 pcpi_rd[7]
*64 pcpi_rd[8]
*65 pcpi_rd[9]
*66 pcpi_ready
*67 pcpi_rs1[0]
*68 pcpi_rs1[10]
*69 pcpi_rs1[11]
*70 pcpi_rs1[12]
*71 pcpi_rs1[13]
*72 pcpi_rs1[14]
*73 pcpi_rs1[15]
*74 pcpi_rs1[16]
*75 pcpi_rs1[17]
*76 pcpi_rs1[18]
*77 pcpi_rs1[19]
*78 pcpi_rs1[1]
*79 pcpi_rs1[20]
*80 pcpi_rs1[21]
*81 pcpi_rs1[22]
*82 pcpi_rs1[23]
*83 pcpi_rs1[24]
*84 pcpi_rs1[25]
*85 pcpi_rs1[26]
*86 pcpi_rs1[27]
*87 pcpi_rs1[28]
*88 pcpi_rs1[29]
*89 pcpi_rs1[2]
*90 pcpi_rs1[30]
*91 pcpi_rs1[31]
*92 pcpi_rs1[3]
*93 pcpi_rs1[4]
*94 pcpi_rs1[5]
*95 pcpi_rs1[6]
*96 pcpi_rs1[7]
*97 pcpi_rs1[8]
*98 pcpi_rs1[9]
*99 pcpi_rs2[0]
*100 pcpi_rs2[10]
*101 pcpi_rs2[11]
*102 pcpi_rs2[12]
*103 pcpi_rs2[13]
*104 pcpi_rs2[14]
*105 pcpi_rs2[15]
*106 pcpi_rs2[16]
*107 pcpi_rs2[17]
*108 pcpi_rs2[18]
*109 pcpi_rs2[19]
*110 pcpi_rs2[1]
*111 pcpi_rs2[20]
*112 pcpi_rs2[21]
*113 pcpi_rs2[22]
*114 pcpi_rs2[23]
*115 pcpi_rs2[24]
*116 pcpi_rs2[25]
*117 pcpi_rs2[26]
*118 pcpi_rs2[27]
*119 pcpi_rs2[28]
*120 pcpi_rs2[29]
*121 pcpi_rs2[2]
*122 pcpi_rs2[30]
*123 pcpi_rs2[31]
*124 pcpi_rs2[3]
*125 pcpi_rs2[4]
*126 pcpi_rs2[5]
*127 pcpi_rs2[6]
*128 pcpi_rs2[7]
*129 pcpi_rs2[8]
*130 pcpi_rs2[9]
*131 pcpi_valid
*132 net117
*133 pcpi_wr
*134 resetn
*137 _0000_
*138 _0001_
*139 _0002_
*140 _0003_
*141 _0004_
*142 _0005_
*143 _0006_
*144 _0007_
*145 _0008_
*146 _0009_
*147 _0010_
*148 _0011_
*149 _0012_
*150 _0013_
*151 _0014_
*152 _0015_
*153 _0016_
*154 _0017_
*155 _0018_
*156 _0019_
*157 _0020_
*158 _0021_
*159 _0022_
*160 _0023_
*161 _0024_
*162 _0025_
*163 _0026_
*164 _0027_
*165 _0028_
*166 _0029_
*167 _0030_
*168 _0031_
*169 _0032_
*170 _0033_
*171 _0034_
*172 _0035_
*173 _0036_
*174 _0037_
*175 _0038_
*176 _0039_
*177 _0040_
*178 _0041_
*179 _0042_
*180 _0043_
*181 _0044_
*182 _0045_
*183 _0046_
*184 _0047_
*185 _0048_
*186 _0049_
*187 _0050_
*188 _0051_
*189 _0052_
*190 _0053_
*191 _0054_
*192 _0055_
*193 _0056_
*194 _0057_
*195 _0058_
*196 _0059_
*197 _0060_
*198 _0061_
*199 _0062_
*200 _0063_
*201 _0064_
*202 _0065_
*203 _0066_
*204 _0067_
*205 _0068_
*206 _0069_
*207 _0070_
*208 _0071_
*209 _0072_
*210 _0073_
*211 _0074_
*212 _0075_
*213 _0076_
*214 _0077_
*215 _0078_
*216 _0079_
*217 _0080_
*218 _0081_
*219 _0082_
*220 _0083_
*221 _0084_
*222 _0085_
*223 _0086_
*224 _0087_
*225 _0088_
*226 _0089_
*227 _0090_
*228 _0091_
*229 _0092_
*230 _0093_
*231 _0094_
*232 _0095_
*233 _0096_
*234 _0097_
*235 _0098_
*236 _0099_
*237 _0100_
*238 _0101_
*239 _0102_
*240 _0103_
*241 _0104_
*242 _0105_
*243 _0106_
*244 _0107_
*245 _0108_
*246 _0109_
*247 _0110_
*248 _0111_
*249 _0112_
*250 _0113_
*251 _0114_
*252 _0115_
*253 _0116_
*254 _0117_
*255 _0118_
*256 _0119_
*257 _0120_
*258 _0121_
*259 _0122_
*260 _0123_
*261 _0124_
*262 _0125_
*263 _0126_
*264 _0127_
*265 _0128_
*266 _0129_
*267 _0130_
*268 _0131_
*269 _0132_
*270 _0133_
*271 _0134_
*272 _0135_
*273 _0136_
*274 _0137_
*275 _0138_
*276 _0139_
*277 _0140_
*278 _0141_
*279 _0142_
*280 _0143_
*281 _0144_
*282 _0145_
*283 _0146_
*284 _0147_
*285 _0148_
*286 _0149_
*287 _0150_
*288 _0151_
*289 _0152_
*290 _0153_
*291 _0154_
*292 _0155_
*293 _0156_
*294 _0157_
*295 _0158_
*296 _0159_
*297 _0160_
*298 _0161_
*299 _0162_
*300 _0163_
*301 _0164_
*302 _0165_
*303 _0166_
*304 _0167_
*305 _0168_
*306 _0169_
*307 _0170_
*308 _0171_
*309 _0172_
*310 _0173_
*311 _0174_
*312 _0175_
*313 _0176_
*314 _0177_
*315 _0178_
*316 _0179_
*317 _0180_
*318 _0181_
*319 _0182_
*320 _0183_
*321 _0184_
*322 _0185_
*323 _0186_
*324 _0187_
*325 _0188_
*326 _0189_
*327 _0190_
*328 _0191_
*329 _0192_
*330 _0193_
*331 _0194_
*332 _0195_
*333 _0196_
*334 _0197_
*335 _0198_
*336 _0199_
*337 _0200_
*338 _0201_
*339 _0202_
*340 _0203_
*341 _0204_
*342 _0205_
*343 _0206_
*344 _0207_
*345 _0208_
*346 _0209_
*347 _0210_
*348 _0211_
*349 _0212_
*350 _0213_
*351 _0214_
*352 _0215_
*353 _0216_
*354 _0217_
*355 _0218_
*356 _0219_
*357 _0220_
*358 _0221_
*359 _0222_
*360 _0223_
*361 _0224_
*362 _0225_
*363 _0226_
*364 _0227_
*365 _0228_
*366 _0229_
*367 _0230_
*368 _0231_
*369 _0232_
*370 _0233_
*371 _0234_
*372 _0235_
*373 _0236_
*374 _0237_
*375 _0238_
*376 _0239_
*377 _0240_
*378 _0241_
*379 _0242_
*380 _0243_
*381 _0244_
*382 _0245_
*383 _0246_
*384 _0247_
*385 _0248_
*386 _0249_
*387 _0250_
*388 _0251_
*389 _0252_
*390 _0253_
*391 _0254_
*392 _0255_
*393 _0256_
*394 _0257_
*395 _0258_
*396 _0259_
*397 _0260_
*398 _0261_
*399 _0262_
*400 _0263_
*401 _0264_
*402 _0265_
*403 _0266_
*404 _0267_
*405 _0268_
*406 _0269_
*407 _0270_
*408 _0271_
*409 _0272_
*410 _0273_
*411 _0274_
*412 _0275_
*413 _0276_
*414 _0277_
*415 _0278_
*416 _0279_
*417 _0280_
*418 _0281_
*419 _0282_
*420 _0283_
*421 _0284_
*422 _0285_
*423 _0286_
*424 _0287_
*425 _0288_
*426 _0289_
*427 _0290_
*428 _0291_
*429 _0292_
*430 _0293_
*431 _0294_
*432 _0295_
*433 _0296_
*434 _0297_
*435 _0298_
*436 _0299_
*437 _0300_
*438 _0301_
*439 _0302_
*440 _0303_
*441 _0304_
*442 _0305_
*443 _0306_
*444 _0307_
*445 _0308_
*446 _0309_
*447 _0310_
*448 _0311_
*449 _0312_
*450 _0313_
*451 _0314_
*452 _0315_
*453 _0316_
*454 _0317_
*455 _0318_
*456 _0319_
*457 _0320_
*458 _0321_
*459 _0322_
*460 _0323_
*461 _0324_
*462 _0325_
*463 _0326_
*464 _0327_
*465 _0328_
*466 _0329_
*467 _0330_
*468 _0331_
*469 _0332_
*470 _0333_
*471 _0334_
*472 _0335_
*473 _0336_
*474 _0337_
*475 _0338_
*476 _0339_
*477 _0340_
*478 _0341_
*479 _0342_
*480 _0343_
*481 _0344_
*482 _0345_
*483 _0346_
*484 _0347_
*485 _0348_
*486 _0349_
*487 _0350_
*488 _0351_
*489 _0352_
*490 _0353_
*491 _0354_
*492 _0355_
*493 _0356_
*494 _0357_
*495 _0358_
*496 _0359_
*497 _0360_
*498 _0361_
*499 _0362_
*500 _0363_
*501 _0364_
*502 _0365_
*503 _0366_
*504 _0367_
*505 _0368_
*506 _0369_
*507 _0370_
*508 _0371_
*509 _0372_
*510 _0373_
*511 _0374_
*512 _0375_
*513 _0376_
*514 _0377_
*515 _0378_
*516 _0379_
*517 _0380_
*518 _0381_
*519 _0382_
*520 _0383_
*521 _0384_
*522 _0385_
*523 _0386_
*524 _0387_
*525 _0388_
*526 _0389_
*527 _0390_
*528 _0391_
*529 _0392_
*530 _0393_
*531 _0394_
*532 _0395_
*533 _0396_
*534 _0397_
*535 _0398_
*536 _0399_
*537 _0400_
*538 _0401_
*539 _0402_
*540 _0403_
*541 _0404_
*542 _0405_
*543 _0406_
*544 _0407_
*545 _0408_
*546 _0409_
*547 _0410_
*548 _0411_
*549 _0412_
*550 _0413_
*551 _0414_
*552 _0415_
*553 _0416_
*554 _0417_
*555 _0418_
*556 _0419_
*557 _0420_
*558 _0421_
*559 _0422_
*560 _0423_
*561 _0424_
*562 _0425_
*563 _0426_
*564 _0427_
*565 _0428_
*566 _0429_
*567 _0430_
*568 _0431_
*569 _0432_
*570 _0433_
*571 _0434_
*572 _0435_
*573 _0436_
*574 _0437_
*575 _0438_
*576 _0439_
*577 _0440_
*578 _0441_
*579 _0442_
*580 _0443_
*581 _0444_
*582 _0445_
*583 _0446_
*584 _0447_
*585 _0448_
*586 _0449_
*587 _0450_
*588 _0451_
*589 _0452_
*590 _0453_
*591 _0454_
*592 _0455_
*593 _0456_
*594 _0457_
*595 _0458_
*596 _0459_
*597 _0460_
*598 _0461_
*599 _0462_
*600 _0463_
*601 _0464_
*602 _0465_
*603 _0466_
*604 _0467_
*605 _0468_
*606 _0469_
*607 _0470_
*608 _0471_
*609 _0472_
*610 _0473_
*611 _0474_
*612 _0475_
*613 _0476_
*614 _0477_
*615 _0478_
*616 _0479_
*617 _0480_
*618 _0481_
*619 _0482_
*620 _0483_
*621 _0484_
*622 _0485_
*623 _0486_
*624 _0487_
*625 _0488_
*626 _0489_
*627 _0490_
*628 _0491_
*629 _0492_
*630 _0493_
*631 _0494_
*632 _0495_
*633 _0496_
*634 _0497_
*635 _0498_
*636 _0499_
*637 _0500_
*638 _0501_
*639 _0502_
*640 _0503_
*641 _0504_
*642 _0505_
*643 _0506_
*644 _0507_
*645 _0508_
*646 _0509_
*647 _0510_
*648 _0511_
*649 _0512_
*650 _0513_
*651 _0514_
*652 _0515_
*653 _0516_
*654 _0517_
*655 _0518_
*656 _0519_
*657 _0520_
*658 _0521_
*659 _0522_
*660 _0523_
*661 _0524_
*662 _0525_
*663 _0526_
*664 _0527_
*665 _0528_
*666 _0529_
*667 _0530_
*668 _0531_
*669 _0532_
*670 _0533_
*671 _0534_
*672 _0535_
*673 _0536_
*674 _0537_
*675 _0538_
*676 _0539_
*677 _0540_
*678 _0541_
*679 _0542_
*680 _0543_
*681 _0544_
*682 _0545_
*683 _0546_
*684 _0547_
*685 _0548_
*686 _0549_
*687 _0550_
*688 _0551_
*689 _0552_
*690 _0553_
*691 _0554_
*692 _0555_
*693 _0556_
*694 _0557_
*695 _0558_
*696 _0559_
*697 _0560_
*698 _0561_
*699 _0562_
*700 _0563_
*701 _0564_
*702 _0565_
*703 _0566_
*704 _0567_
*705 _0568_
*706 _0569_
*707 _0570_
*708 _0571_
*709 _0572_
*710 _0573_
*711 _0574_
*712 _0575_
*713 _0576_
*714 _0577_
*715 _0578_
*716 _0579_
*717 _0580_
*718 _0581_
*719 _0582_
*720 _0583_
*721 _0584_
*722 _0585_
*723 _0586_
*724 _0587_
*725 _0588_
*726 _0589_
*727 _0590_
*728 _0591_
*729 _0592_
*730 _0593_
*731 _0594_
*732 _0595_
*733 _0596_
*734 _0597_
*735 _0598_
*736 _0599_
*737 _0600_
*738 _0601_
*739 _0602_
*740 _0603_
*741 _0604_
*742 _0605_
*743 _0606_
*744 _0607_
*745 _0608_
*746 _0609_
*747 _0610_
*748 _0611_
*749 _0612_
*750 _0613_
*751 _0614_
*752 _0615_
*753 _0616_
*754 _0617_
*755 _0618_
*756 _0619_
*757 _0620_
*758 _0621_
*759 _0622_
*760 _0623_
*761 _0624_
*762 _0625_
*763 _0626_
*764 _0627_
*765 _0628_
*766 _0629_
*767 _0630_
*768 _0631_
*769 _0632_
*770 _0633_
*771 _0634_
*772 _0635_
*773 _0636_
*774 _0637_
*775 _0638_
*776 _0639_
*777 _0640_
*778 _0641_
*779 _0642_
*780 _0643_
*781 _0644_
*782 _0645_
*783 _0646_
*784 _0647_
*785 _0648_
*786 _0649_
*787 _0650_
*788 _0651_
*789 _0652_
*790 _0653_
*791 _0654_
*792 _0655_
*793 _0656_
*794 _0657_
*795 _0658_
*796 _0659_
*797 _0660_
*798 _0661_
*799 _0662_
*800 _0663_
*801 _0664_
*802 _0665_
*803 _0666_
*804 _0667_
*805 _0668_
*806 _0669_
*807 _0670_
*808 _0671_
*809 _0672_
*810 _0673_
*811 _0674_
*812 _0675_
*813 _0676_
*814 _0677_
*815 _0678_
*816 _0679_
*817 _0680_
*818 _0681_
*819 _0682_
*820 _0683_
*821 _0684_
*822 _0685_
*823 _0686_
*824 _0687_
*825 _0688_
*826 _0689_
*827 _0690_
*828 _0691_
*829 _0692_
*830 _0693_
*831 _0694_
*832 _0695_
*833 _0696_
*834 _0697_
*835 _0698_
*836 _0699_
*837 _0700_
*838 _0701_
*839 _0702_
*840 _0703_
*841 _0704_
*842 _0705_
*843 _0706_
*844 _0707_
*845 _0708_
*846 _0709_
*847 _0710_
*848 _0711_
*849 _0712_
*850 _0713_
*851 _0714_
*852 _0715_
*853 _0716_
*854 _0717_
*855 _0718_
*856 _0719_
*857 _0720_
*858 _0721_
*859 _0722_
*860 _0723_
*861 _0724_
*862 _0725_
*863 _0726_
*864 _0727_
*865 _0728_
*866 _0729_
*867 _0730_
*868 _0731_
*869 _0732_
*870 _0733_
*871 _0734_
*872 _0735_
*873 _0736_
*874 _0737_
*875 _0738_
*876 _0739_
*877 _0740_
*878 _0741_
*879 _0742_
*880 _0743_
*881 _0744_
*882 _0745_
*883 _0746_
*884 _0747_
*885 _0748_
*886 _0749_
*887 _0750_
*888 _0751_
*889 _0752_
*890 _0753_
*891 _0754_
*892 _0755_
*893 _0756_
*894 _0757_
*895 _0758_
*896 _0759_
*897 _0760_
*898 _0761_
*899 _0762_
*900 _0763_
*901 _0764_
*902 _0765_
*903 _0766_
*904 _0767_
*905 _0768_
*906 _0769_
*907 _0770_
*908 _0771_
*909 _0772_
*910 _0773_
*911 _0774_
*912 _0775_
*913 _0776_
*914 _0777_
*915 _0778_
*916 _0779_
*917 _0780_
*918 _0781_
*919 _0782_
*920 _0783_
*921 _0784_
*922 _0785_
*923 _0786_
*924 _0787_
*925 _0788_
*926 _0789_
*927 _0790_
*928 _0791_
*929 _0792_
*930 _0793_
*931 _0794_
*932 _0795_
*933 _0796_
*934 _0797_
*935 _0798_
*936 _0799_
*937 _0800_
*938 _0801_
*939 _0802_
*940 _0803_
*941 _0804_
*942 _0805_
*943 _0806_
*944 _0807_
*945 _0808_
*946 _0809_
*947 _0810_
*948 _0811_
*949 _0812_
*950 _0813_
*951 _0814_
*952 _0815_
*953 _0816_
*954 _0817_
*955 _0818_
*956 _0819_
*957 _0820_
*958 _0821_
*959 _0822_
*960 _0823_
*961 _0824_
*962 _0825_
*963 _0826_
*964 _0827_
*965 _0828_
*966 _0829_
*967 _0830_
*968 _0831_
*969 _0832_
*970 _0833_
*971 _0834_
*972 _0835_
*973 _0836_
*974 _0837_
*975 _0838_
*976 _0839_
*977 _0840_
*978 _0841_
*979 _0842_
*980 _0843_
*981 _0844_
*982 _0845_
*983 _0846_
*984 _0847_
*985 _0848_
*986 _0849_
*987 _0850_
*988 _0851_
*989 _0852_
*990 _0853_
*991 _0854_
*992 _0855_
*993 _0856_
*994 _0857_
*995 _0858_
*996 _0859_
*997 _0860_
*998 _0861_
*999 _0862_
*1000 _0863_
*1001 _0864_
*1002 _0865_
*1003 _0866_
*1004 _0867_
*1005 _0868_
*1006 _0869_
*1007 _0870_
*1008 _0871_
*1009 _0872_
*1010 _0873_
*1011 _0874_
*1012 _0875_
*1013 _0876_
*1014 _0877_
*1015 _0878_
*1016 _0879_
*1017 _0880_
*1018 _0881_
*1019 _0882_
*1020 _0883_
*1021 _0884_
*1022 _0885_
*1023 _0886_
*1024 _0887_
*1025 _0888_
*1026 _0889_
*1027 _0890_
*1028 _0891_
*1029 _0892_
*1030 _0893_
*1031 _0894_
*1032 _0895_
*1033 _0896_
*1034 _0897_
*1035 _0898_
*1036 _0899_
*1037 _0900_
*1038 _0901_
*1039 _0902_
*1040 _0903_
*1041 _0904_
*1042 _0905_
*1043 _0906_
*1044 _0907_
*1045 _0908_
*1046 _0909_
*1047 _0910_
*1048 _0911_
*1049 _0912_
*1050 _0913_
*1051 _0914_
*1052 _0915_
*1053 _0916_
*1054 _0917_
*1055 _0918_
*1056 _0919_
*1057 _0920_
*1058 _0921_
*1059 _0922_
*1060 _0923_
*1061 _0924_
*1062 _0925_
*1063 _0926_
*1064 _0927_
*1065 _0928_
*1066 _0929_
*1067 _0930_
*1068 _0931_
*1069 _0932_
*1070 _0933_
*1071 _0934_
*1072 _0935_
*1073 _0936_
*1074 _0937_
*1075 _0938_
*1076 _0939_
*1077 _0940_
*1078 _0941_
*1079 _0942_
*1080 _0943_
*1081 _0944_
*1082 _0945_
*1083 _0946_
*1084 _0947_
*1085 _0948_
*1086 _0949_
*1087 _0950_
*1088 _0951_
*1089 _0952_
*1090 _0953_
*1091 _0954_
*1092 _0955_
*1093 _0956_
*1094 _0957_
*1095 _0958_
*1096 _0959_
*1097 _0960_
*1098 _0961_
*1099 _0962_
*1100 _0963_
*1101 _0964_
*1102 _0965_
*1103 _0966_
*1104 _0967_
*1105 _0968_
*1106 _0969_
*1107 _0970_
*1108 _0971_
*1109 _0972_
*1110 _0973_
*1111 _0974_
*1112 _0975_
*1113 _0976_
*1114 _0977_
*1115 _0978_
*1116 _0979_
*1117 _0980_
*1118 _0981_
*1119 _0982_
*1120 _0983_
*1121 _0984_
*1122 _0985_
*1123 _0986_
*1124 _0987_
*1125 _0988_
*1126 _0989_
*1127 _0990_
*1128 _0991_
*1129 _0992_
*1130 _0993_
*1131 _0994_
*1132 _0995_
*1133 _0996_
*1134 _0997_
*1135 _0998_
*1136 _0999_
*1137 _1000_
*1138 _1001_
*1139 _1002_
*1140 _1003_
*1141 _1004_
*1142 _1005_
*1143 _1006_
*1144 _1007_
*1145 _1008_
*1146 _1009_
*1147 _1010_
*1148 _1011_
*1149 _1012_
*1150 _1013_
*1151 _1014_
*1152 _1015_
*1153 _1016_
*1154 _1017_
*1155 _1018_
*1156 _1019_
*1157 _1020_
*1158 _1021_
*1159 _1022_
*1160 _1023_
*1161 _1024_
*1162 _1025_
*1163 _1026_
*1164 _1027_
*1165 _1028_
*1166 _1029_
*1167 _1030_
*1168 _1031_
*1169 _1032_
*1170 _1033_
*1171 _1034_
*1172 _1035_
*1173 _1036_
*1174 _1037_
*1175 _1038_
*1176 _1039_
*1177 _1040_
*1178 _1041_
*1179 _1042_
*1180 _1043_
*1181 _1044_
*1182 _1045_
*1183 _1046_
*1184 _1047_
*1185 _1048_
*1186 _1049_
*1187 _1050_
*1188 _1051_
*1189 _1052_
*1190 _1053_
*1191 _1054_
*1192 _1055_
*1193 _1056_
*1194 _1057_
*1195 _1058_
*1196 _1059_
*1197 _1060_
*1198 _1061_
*1199 _1062_
*1200 _1063_
*1201 _1064_
*1202 _1065_
*1203 _1066_
*1204 _1067_
*1205 _1068_
*1206 _1069_
*1207 _1070_
*1208 _1071_
*1209 _1072_
*1210 _1073_
*1211 _1074_
*1212 _1075_
*1213 _1076_
*1214 _1077_
*1215 _1078_
*1216 _1079_
*1217 _1080_
*1218 _1081_
*1219 _1082_
*1220 _1083_
*1221 _1084_
*1222 _1085_
*1223 _1086_
*1224 _1087_
*1225 _1088_
*1226 _1089_
*1227 _1090_
*1228 _1091_
*1229 _1092_
*1230 _1093_
*1231 _1094_
*1232 _1095_
*1233 _1096_
*1234 _1097_
*1235 _1098_
*1236 _1099_
*1237 _1100_
*1238 _1101_
*1239 _1102_
*1240 _1103_
*1241 _1104_
*1242 _1105_
*1243 _1106_
*1244 _1107_
*1245 _1108_
*1246 _1109_
*1247 _1110_
*1248 _1111_
*1249 _1112_
*1250 _1113_
*1251 _1114_
*1252 _1115_
*1253 _1116_
*1254 _1117_
*1255 _1118_
*1256 _1119_
*1257 _1120_
*1258 _1121_
*1259 _1122_
*1260 _1123_
*1261 _1124_
*1262 _1125_
*1263 _1126_
*1264 _1127_
*1265 _1128_
*1266 _1129_
*1267 _1130_
*1268 _1131_
*1269 _1132_
*1270 _1133_
*1271 _1134_
*1272 _1135_
*1273 _1136_
*1274 _1137_
*1275 _1138_
*1276 _1139_
*1277 _1140_
*1278 _1141_
*1279 _1142_
*1280 _1143_
*1281 _1144_
*1282 _1145_
*1283 _1146_
*1284 _1147_
*1285 _1148_
*1286 _1149_
*1287 _1150_
*1288 _1151_
*1289 _1152_
*1290 _1153_
*1291 _1154_
*1292 _1155_
*1293 _1156_
*1294 _1157_
*1295 _1158_
*1296 _1159_
*1297 _1160_
*1298 _1161_
*1299 _1162_
*1300 _1163_
*1301 _1164_
*1302 _1165_
*1303 _1166_
*1304 _1167_
*1305 _1168_
*1306 _1169_
*1307 _1170_
*1308 _1171_
*1309 _1172_
*1310 _1173_
*1311 _1174_
*1312 _1175_
*1313 _1176_
*1314 _1177_
*1315 _1178_
*1316 _1179_
*1317 _1180_
*1318 _1181_
*1319 _1182_
*1320 _1183_
*1321 _1184_
*1322 _1185_
*1323 _1186_
*1324 _1187_
*1325 _1188_
*1326 _1189_
*1327 _1190_
*1328 _1191_
*1329 _1192_
*1330 _1193_
*1331 _1194_
*1332 _1195_
*1333 _1196_
*1334 _1197_
*1335 _1198_
*1336 _1199_
*1337 _1200_
*1338 _1201_
*1339 _1202_
*1340 _1203_
*1341 _1204_
*1342 _1205_
*1343 _1206_
*1344 _1207_
*1345 _1208_
*1346 _1209_
*1347 _1210_
*1348 _1211_
*1349 _1212_
*1350 _1213_
*1351 _1214_
*1352 _1215_
*1353 _1216_
*1354 _1217_
*1355 _1218_
*1356 _1219_
*1357 _1220_
*1358 _1221_
*1359 _1222_
*1360 _1223_
*1361 _1224_
*1362 _1225_
*1363 _1226_
*1364 _1227_
*1365 _1228_
*1366 _1229_
*1367 _1230_
*1368 _1231_
*1369 _1232_
*1370 _1233_
*1371 _1234_
*1372 _1235_
*1373 _1236_
*1374 _1237_
*1375 _1238_
*1376 _1239_
*1377 _1240_
*1378 _1241_
*1379 _1242_
*1380 _1243_
*1381 _1244_
*1382 _1245_
*1383 _1246_
*1384 _1247_
*1385 _1248_
*1386 _1249_
*1387 _1250_
*1388 _1251_
*1389 _1252_
*1390 _1253_
*1391 _1254_
*1392 _1255_
*1393 _1256_
*1394 _1257_
*1395 _1258_
*1396 _1259_
*1397 _1260_
*1398 _1261_
*1399 _1262_
*1400 _1263_
*1401 _1264_
*1402 _1265_
*1403 _1266_
*1404 _1267_
*1405 _1268_
*1406 _1269_
*1407 _1270_
*1408 _1271_
*1409 _1272_
*1410 _1273_
*1411 _1274_
*1412 _1275_
*1413 _1276_
*1414 _1277_
*1415 _1278_
*1416 _1279_
*1417 _1280_
*1418 _1281_
*1419 _1282_
*1420 _1283_
*1421 _1284_
*1422 _1285_
*1423 _1286_
*1424 _1287_
*1425 _1288_
*1426 _1289_
*1427 _1290_
*1428 _1291_
*1429 _1292_
*1430 _1293_
*1431 _1294_
*1432 _1295_
*1433 _1296_
*1434 _1297_
*1435 _1298_
*1436 _1299_
*1437 _1300_
*1438 _1301_
*1439 _1302_
*1440 _1303_
*1441 _1304_
*1442 _1305_
*1443 _1306_
*1444 _1307_
*1445 _1308_
*1446 _1309_
*1447 _1310_
*1448 _1311_
*1449 _1312_
*1450 _1313_
*1451 _1314_
*1452 _1315_
*1453 _1316_
*1454 _1317_
*1455 _1318_
*1456 _1319_
*1457 _1320_
*1458 _1321_
*1459 _1322_
*1460 _1323_
*1461 _1324_
*1462 _1325_
*1463 _1326_
*1464 _1327_
*1465 _1328_
*1466 _1329_
*1467 _1330_
*1468 _1331_
*1469 _1332_
*1470 _1333_
*1471 _1334_
*1472 _1335_
*1473 _1336_
*1474 _1337_
*1475 _1338_
*1476 _1339_
*1477 _1340_
*1478 _1341_
*1479 _1342_
*1480 _1343_
*1481 _1344_
*1482 _1345_
*1483 _1346_
*1484 _1347_
*1485 _1348_
*1486 _1349_
*1487 _1350_
*1488 _1351_
*1489 _1352_
*1490 _1353_
*1491 _1354_
*1492 _1355_
*1493 _1356_
*1494 _1357_
*1495 _1358_
*1496 _1359_
*1497 _1360_
*1498 _1361_
*1499 _1362_
*1500 _1363_
*1501 _1364_
*1502 _1365_
*1503 _1366_
*1504 _1367_
*1505 _1368_
*1506 _1369_
*1507 _1370_
*1508 _1371_
*1509 _1372_
*1510 _1373_
*1511 _1374_
*1512 _1375_
*1513 _1376_
*1514 _1377_
*1515 _1378_
*1516 _1379_
*1517 _1380_
*1518 _1381_
*1519 _1382_
*1520 _1383_
*1521 _1384_
*1522 _1385_
*1523 _1386_
*1524 _1387_
*1525 _1388_
*1526 _1389_
*1527 _1390_
*1528 _1391_
*1529 _1392_
*1530 _1393_
*1531 _1394_
*1532 _1395_
*1533 _1396_
*1534 _1397_
*1535 _1398_
*1536 _1399_
*1537 _1400_
*1538 _1401_
*1539 _1402_
*1540 _1403_
*1541 _1404_
*1542 _1405_
*1543 _1406_
*1544 _1407_
*1545 _1408_
*1546 _1409_
*1547 _1410_
*1548 _1411_
*1549 _1412_
*1550 _1413_
*1551 _1414_
*1552 _1415_
*1553 _1416_
*1554 _1417_
*1555 _1418_
*1556 _1419_
*1557 _1420_
*1558 _1421_
*1559 _1422_
*1560 _1423_
*1561 _1424_
*1562 _1425_
*1563 _1426_
*1564 _1427_
*1565 _1428_
*1566 _1429_
*1567 _1430_
*1568 _1431_
*1569 _1432_
*1570 _1433_
*1571 _1434_
*1572 _1435_
*1573 _1436_
*1574 _1437_
*1575 _1438_
*1576 _1439_
*1577 _1440_
*1578 _1441_
*1579 _1442_
*1580 _1443_
*1581 _1444_
*1582 _1445_
*1583 _1446_
*1584 _1447_
*1585 _1448_
*1586 _1449_
*1587 _1450_
*1588 _1451_
*1589 _1452_
*1590 _1453_
*1591 _1454_
*1592 _1455_
*1593 _1456_
*1594 _1457_
*1595 _1458_
*1596 _1459_
*1597 _1460_
*1598 _1461_
*1599 _1462_
*1600 _1463_
*1601 _1464_
*1602 _1465_
*1603 _1466_
*1604 _1467_
*1605 _1468_
*1606 _1469_
*1607 _1470_
*1608 _1471_
*1609 _1472_
*1610 _1473_
*1611 _1474_
*1612 _1475_
*1613 _1476_
*1614 _1477_
*1615 _1478_
*1616 _1479_
*1617 _1480_
*1618 _1481_
*1619 active
*1620 clknet_0_clk
*1621 clknet_2_0__leaf_clk
*1622 clknet_2_1__leaf_clk
*1623 clknet_2_2__leaf_clk
*1624 clknet_2_3__leaf_clk
*1625 net1
*1626 net10
*1627 net100
*1628 net101
*1629 net102
*1630 net103
*1631 net104
*1632 net105
*1633 net106
*1634 net107
*1635 net108
*1636 net109
*1637 net11
*1638 net110
*1639 net111
*1640 net112
*1641 net113
*1642 net114
*1643 net115
*1644 net116
*1645 net12
*1646 net13
*1647 net14
*1648 net15
*1649 net16
*1650 net17
*1651 net18
*1652 net19
*1653 net2
*1654 net20
*1655 net21
*1656 net22
*1657 net23
*1658 net24
*1659 net25
*1660 net26
*1661 net27
*1662 net28
*1663 net29
*1664 net3
*1665 net30
*1666 net31
*1667 net32
*1668 net33
*1669 net34
*1670 net35
*1671 net36
*1672 net37
*1673 net38
*1674 net39
*1675 net4
*1676 net40
*1677 net41
*1678 net42
*1679 net43
*1680 net44
*1681 net45
*1682 net46
*1683 net47
*1684 net48
*1685 net49
*1686 net5
*1687 net50
*1688 net51
*1689 net52
*1690 net53
*1691 net54
*1692 net55
*1693 net56
*1694 net57
*1695 net58
*1696 net59
*1697 net6
*1698 net60
*1699 net61
*1700 net62
*1701 net63
*1702 net64
*1703 net65
*1704 net66
*1705 net67
*1706 net68
*1707 net69
*1708 net7
*1709 net70
*1710 net71
*1711 net72
*1712 net73
*1713 net74
*1714 net75
*1715 net76
*1716 net77
*1717 net78
*1718 net79
*1719 net8
*1720 net80
*1721 net81
*1722 net82
*1723 net83
*1724 net84
*1725 net85
*1726 net86
*1727 net87
*1728 net88
*1729 net89
*1730 net9
*1731 net90
*1732 net91
*1733 net92
*1734 net93
*1735 net94
*1736 net95
*1737 net96
*1738 net97
*1739 net98
*1740 net99
*1741 ANTENNA__1482__A1
*1742 ANTENNA__1482__A2
*1743 ANTENNA__1482__A3
*1744 ANTENNA__1483__A1
*1745 ANTENNA__1483__A2
*1746 ANTENNA__1484__A1
*1747 ANTENNA__1485__A1
*1748 ANTENNA__1486__A1
*1749 ANTENNA__1487__I
*1750 ANTENNA__1488__A1
*1751 ANTENNA__1488__A3
*1752 ANTENNA__1490__I
*1753 ANTENNA__1492__A2
*1754 ANTENNA__1494__I
*1755 ANTENNA__1497__I
*1756 ANTENNA__1508__A2
*1757 ANTENNA__1525__A2
*1758 ANTENNA__1540__A2
*1759 ANTENNA__1541__A2
*1760 ANTENNA__1549__A1
*1761 ANTENNA__1549__A2
*1762 ANTENNA__1552__A2
*1763 ANTENNA__1556__A2
*1764 ANTENNA__1615__A1
*1765 ANTENNA__1620__B2
*1766 ANTENNA__1622__I
*1767 ANTENNA__1639__A1
*1768 ANTENNA__1642__A2
*1769 ANTENNA__1675__A1
*1770 ANTENNA__1682__A1
*1771 ANTENNA__1700__A2
*1772 ANTENNA__1704__I
*1773 ANTENNA__1706__A1
*1774 ANTENNA__1724__A1
*1775 ANTENNA__1748__A1
*1776 ANTENNA__1755__A1
*1777 ANTENNA__1758__A2
*1778 ANTENNA__1769__A2
*1779 ANTENNA__1772__A1
*1780 ANTENNA__1774__I
*1781 ANTENNA__1788__A1
*1782 ANTENNA__1794__A2
*1783 ANTENNA__1801__B1
*1784 ANTENNA__1809__A2
*1785 ANTENNA__1823__A1
*1786 ANTENNA__1823__A2
*1787 ANTENNA__1826__I1
*1788 ANTENNA__1833__A1
*1789 ANTENNA__1834__B1
*1790 ANTENNA__1840__A1
*1791 ANTENNA__1841__A1
*1792 ANTENNA__1844__A2
*1793 ANTENNA__1845__I1
*1794 ANTENNA__1868__A1
*1795 ANTENNA__1877__A1
*1796 ANTENNA__1890__A2
*1797 ANTENNA__1901__A2
*1798 ANTENNA__1915__A2
*1799 ANTENNA__1937__A1
*1800 ANTENNA__1940__I
*1801 ANTENNA__1943__A2
*1802 ANTENNA__1950__A1
*1803 ANTENNA__1967__A2
*1804 ANTENNA__2000__A1
*1805 ANTENNA__2041__A1
*1806 ANTENNA__2060__A1
*1807 ANTENNA__2061__A1
*1808 ANTENNA__2083__A1
*1809 ANTENNA__2112__A1
*1810 ANTENNA__2119__A1
*1811 ANTENNA__2140__A1
*1812 ANTENNA__2140__B2
*1813 ANTENNA__2146__A2
*1814 ANTENNA__2156__A1
*1815 ANTENNA__2172__A1
*1816 ANTENNA__2172__A2
*1817 ANTENNA__2172__C
*1818 ANTENNA__2173__A2
*1819 ANTENNA__2180__A1
*1820 ANTENNA__2200__A1
*1821 ANTENNA__2200__A2
*1822 ANTENNA__2202__A1
*1823 ANTENNA__2213__B1
*1824 ANTENNA__2215__A2
*1825 ANTENNA__2220__C
*1826 ANTENNA__2223__A2
*1827 ANTENNA__2270__A2
*1828 ANTENNA__2304__A2
*1829 ANTENNA__2329__A2
*1830 ANTENNA__2374__A1
*1831 ANTENNA__2375__A1
*1832 ANTENNA__2381__B1
*1833 ANTENNA__2383__A1
*1834 ANTENNA__2385__A2
*1835 ANTENNA__2407__A1
*1836 ANTENNA__2426__A2
*1837 ANTENNA__2434__A3
*1838 ANTENNA__2435__A1
*1839 ANTENNA__2436__B
*1840 ANTENNA__2437__I
*1841 ANTENNA__2440__A2
*1842 ANTENNA__2466__A2
*1843 ANTENNA__2467__A1
*1844 ANTENNA__2469__A2
*1845 ANTENNA__2471__A2
*1846 ANTENNA__2472__A1
*1847 ANTENNA__2473__A2
*1848 ANTENNA__2478__A1
*1849 ANTENNA__2482__A2
*1850 ANTENNA__2483__A2
*1851 ANTENNA__2484__A2
*1852 ANTENNA__2513__A2
*1853 ANTENNA__2521__A1
*1854 ANTENNA__2552__I
*1855 ANTENNA__2555__A1
*1856 ANTENNA__2555__A2
*1857 ANTENNA__2586__C
*1858 ANTENNA__2587__A2
*1859 ANTENNA__2589__A1
*1860 ANTENNA__2592__A2
*1861 ANTENNA__2597__A1
*1862 ANTENNA__2599__A2
*1863 ANTENNA__2603__A1
*1864 ANTENNA__2633__A2
*1865 ANTENNA__2654__A2
*1866 ANTENNA__2679__A2
*1867 ANTENNA__2682__A2
*1868 ANTENNA__2685__I
*1869 ANTENNA__2689__A2
*1870 ANTENNA__2697__A2
*1871 ANTENNA__2700__A1
*1872 ANTENNA__2710__A1
*1873 ANTENNA__2716__A1
*1874 ANTENNA__2717__A1
*1875 ANTENNA__2727__A2
*1876 ANTENNA__2730__B2
*1877 ANTENNA__2733__A2
*1878 ANTENNA__2734__A2
*1879 ANTENNA__2736__A2
*1880 ANTENNA__2739__A1
*1881 ANTENNA__2749__I
*1882 ANTENNA__2751__A1
*1883 ANTENNA__2754__A1
*1884 ANTENNA__2754__A2
*1885 ANTENNA__2775__A1
*1886 ANTENNA__2779__A1
*1887 ANTENNA__2790__A2
*1888 ANTENNA__2791__A2
*1889 ANTENNA__2799__I
*1890 ANTENNA__2818__A1
*1891 ANTENNA__2831__A1
*1892 ANTENNA__2834__A2
*1893 ANTENNA__2836__A2
*1894 ANTENNA__2843__I
*1895 ANTENNA__2845__A1
*1896 ANTENNA__2847__A2
*1897 ANTENNA__2848__B2
*1898 ANTENNA__2853__A1
*1899 ANTENNA__2856__A1
*1900 ANTENNA__2876__A1
*1901 ANTENNA__2877__A2
*1902 ANTENNA__2878__A2
*1903 ANTENNA__2881__A1
*1904 ANTENNA__2887__A1
*1905 ANTENNA__2889__A2
*1906 ANTENNA__2890__A2
*1907 ANTENNA__2896__A1
*1908 ANTENNA__2910__A1
*1909 ANTENNA__2913__A1
*1910 ANTENNA__2914__C
*1911 ANTENNA__2935__C
*1912 ANTENNA__2937__A1
*1913 ANTENNA__2960__A1
*1914 ANTENNA__2965__CLK
*1915 ANTENNA__2966__CLK
*1916 ANTENNA__2967__CLK
*1917 ANTENNA__2968__CLK
*1918 ANTENNA__2969__CLK
*1919 ANTENNA__2970__CLK
*1920 ANTENNA__2971__CLK
*1921 ANTENNA__2972__CLK
*1922 ANTENNA__2973__CLK
*1923 ANTENNA__2974__CLK
*1924 ANTENNA__2975__CLK
*1925 ANTENNA__2976__CLK
*1926 ANTENNA__2977__CLK
*1927 ANTENNA__2978__CLK
*1928 ANTENNA__2979__CLK
*1929 ANTENNA__2980__CLK
*1930 ANTENNA__2981__CLK
*1931 ANTENNA__2986__CLK
*1932 ANTENNA__2990__CLK
*1933 ANTENNA__2991__CLK
*1934 ANTENNA__2992__CLK
*1935 ANTENNA__2993__CLK
*1936 ANTENNA__2994__CLK
*1937 ANTENNA__2995__CLK
*1938 ANTENNA__2996__CLK
*1939 ANTENNA__2997__CLK
*1940 ANTENNA_clkbuf_0_clk_I
*1941 ANTENNA_clkbuf_2_0__f_clk_I
*1942 ANTENNA_clkbuf_2_1__f_clk_I
*1943 ANTENNA_clkbuf_2_2__f_clk_I
*1944 ANTENNA_clkbuf_2_3__f_clk_I
*1945 ANTENNA_input10_I
*1946 ANTENNA_input11_I
*1947 ANTENNA_input12_I
*1948 ANTENNA_input13_I
*1949 ANTENNA_input14_I
*1950 ANTENNA_input15_I
*1951 ANTENNA_input16_I
*1952 ANTENNA_input17_I
*1953 ANTENNA_input18_I
*1954 ANTENNA_input19_I
*1955 ANTENNA_input1_I
*1956 ANTENNA_input20_I
*1957 ANTENNA_input21_I
*1958 ANTENNA_input22_I
*1959 ANTENNA_input23_I
*1960 ANTENNA_input24_I
*1961 ANTENNA_input25_I
*1962 ANTENNA_input26_I
*1963 ANTENNA_input27_I
*1964 ANTENNA_input28_I
*1965 ANTENNA_input29_I
*1966 ANTENNA_input2_I
*1967 ANTENNA_input30_I
*1968 ANTENNA_input31_I
*1969 ANTENNA_input32_I
*1970 ANTENNA_input33_I
*1971 ANTENNA_input34_I
*1972 ANTENNA_input35_I
*1973 ANTENNA_input36_I
*1974 ANTENNA_input37_I
*1975 ANTENNA_input38_I
*1976 ANTENNA_input39_I
*1977 ANTENNA_input3_I
*1978 ANTENNA_input40_I
*1979 ANTENNA_input41_I
*1980 ANTENNA_input42_I
*1981 ANTENNA_input43_I
*1982 ANTENNA_input44_I
*1983 ANTENNA_input45_I
*1984 ANTENNA_input46_I
*1985 ANTENNA_input47_I
*1986 ANTENNA_input48_I
*1987 ANTENNA_input49_I
*1988 ANTENNA_input4_I
*1989 ANTENNA_input50_I
*1990 ANTENNA_input51_I
*1991 ANTENNA_input52_I
*1992 ANTENNA_input53_I
*1993 ANTENNA_input54_I
*1994 ANTENNA_input55_I
*1995 ANTENNA_input56_I
*1996 ANTENNA_input57_I
*1997 ANTENNA_input58_I
*1998 ANTENNA_input59_I
*1999 ANTENNA_input5_I
*2000 ANTENNA_input60_I
*2001 ANTENNA_input61_I
*2002 ANTENNA_input62_I
*2003 ANTENNA_input63_I
*2004 ANTENNA_input64_I
*2005 ANTENNA_input65_I
*2006 ANTENNA_input66_I
*2007 ANTENNA_input67_I
*2008 ANTENNA_input68_I
*2009 ANTENNA_input69_I
*2010 ANTENNA_input6_I
*2011 ANTENNA_input70_I
*2012 ANTENNA_input71_I
*2013 ANTENNA_input72_I
*2014 ANTENNA_input73_I
*2015 ANTENNA_input74_I
*2016 ANTENNA_input75_I
*2017 ANTENNA_input76_I
*2018 ANTENNA_input77_I
*2019 ANTENNA_input78_I
*2020 ANTENNA_input79_I
*2021 ANTENNA_input7_I
*2022 ANTENNA_input80_I
*2023 ANTENNA_input81_I
*2024 ANTENNA_input82_I
*2025 ANTENNA_input8_I
*2026 ANTENNA_input9_I
*2027 ANTENNA_output100_I
*2028 ANTENNA_output101_I
*2029 ANTENNA_output102_I
*2030 ANTENNA_output104_I
*2031 ANTENNA_output110_I
*2032 ANTENNA_output112_I
*2033 ANTENNA_output114_I
*2034 ANTENNA_output87_I
*2035 ANTENNA_output90_I
*2036 ANTENNA_output95_I
*2037 ANTENNA_output97_I
*2038 ANTENNA_output98_I
*2039 FILLER_0_0_104
*2040 FILLER_0_0_112
*2041 FILLER_0_0_121
*2042 FILLER_0_0_129
*2043 FILLER_0_0_133
*2044 FILLER_0_0_135
*2045 FILLER_0_0_138
*2046 FILLER_0_0_172
*2047 FILLER_0_0_180
*2048 FILLER_0_0_185
*2049 FILLER_0_0_2
*2050 FILLER_0_0_201
*2051 FILLER_0_0_203
*2052 FILLER_0_0_206