*SPEF "ieee 1481-1999"
*DESIGN "simpleuart"
*DATE "11:11:11 Fri 11 11, 1111"
*VENDOR "OpenRCX"
*PROGRAM "Parallel Extraction"
*VERSION "1.0"
*DESIGN_FLOW "NAME_SCOPE LOCAL" "PIN_CAP NONE"
*DIVIDER /
*DELIMITER :
*BUS_DELIMITER []
*T_UNIT 1 NS
*C_UNIT 1 PF
*R_UNIT 1 OHM
*L_UNIT 1 HENRY

*NAME_MAP
*1 clk
*2 reg_dat_di[0]
*3 reg_dat_di[10]
*4 reg_dat_di[11]
*5 reg_dat_di[12]
*6 reg_dat_di[13]
*7 reg_dat_di[14]
*8 reg_dat_di[15]
*9 reg_dat_di[16]
*10 reg_dat_di[17]
*11 reg_dat_di[18]
*12 reg_dat_di[19]
*13 reg_dat_di[1]
*14 reg_dat_di[20]
*15 reg_dat_di[21]
*16 reg_dat_di[22]
*17 reg_dat_di[23]
*18 reg_dat_di[24]
*19 reg_dat_di[25]
*20 reg_dat_di[26]
*21 reg_dat_di[27]
*22 reg_dat_di[28]
*23 reg_dat_di[29]
*24 reg_dat_di[2]
*25 reg_dat_di[30]
*26 reg_dat_di[31]
*27 reg_dat_di[3]
*28 reg_dat_di[4]
*29 reg_dat_di[5]
*30 reg_dat_di[6]
*31 reg_dat_di[7]
*32 reg_dat_di[8]
*33 reg_dat_di[9]
*34 reg_dat_do[0]
*35 reg_dat_do[10]
*36 reg_dat_do[11]
*37 reg_dat_do[12]
*38 reg_dat_do[13]
*39 reg_dat_do[14]
*40 reg_dat_do[15]
*41 reg_dat_do[16]
*42 reg_dat_do[17]
*43 reg_dat_do[18]
*44 reg_dat_do[19]
*45 reg_dat_do[1]
*46 reg_dat_do[20]
*47 reg_dat_do[21]
*48 reg_dat_do[22]
*49 reg_dat_do[23]
*50 reg_dat_do[24]
*51 reg_dat_do[25]
*52 reg_dat_do[26]
*53 reg_dat_do[27]
*54 reg_dat_do[28]
*55 reg_dat_do[29]
*56 reg_dat_do[2]
*57 reg_dat_do[30]
*58 reg_dat_do[31]
*59 reg_dat_do[3]
*60 reg_dat_do[4]
*61 reg_dat_do[5]
*62 reg_dat_do[6]
*63 reg_dat_do[7]
*64 reg_dat_do[8]
*65 reg_dat_do[9]
*66 reg_dat_re
*67 reg_dat_wait
*68 reg_dat_we
*69 reg_div_di[0]
*70 reg_div_di[10]
*71 reg_div_di[11]
*72 reg_div_di[12]
*73 reg_div_di[13]
*74 reg_div_di[14]
*75 reg_div_di[15]
*76 reg_div_di[16]
*77 reg_div_di[17]
*78 reg_div_di[18]
*79 reg_div_di[19]
*80 reg_div_di[1]
*81 reg_div_di[20]
*82 reg_div_di[21]
*83 reg_div_di[22]
*84 reg_div_di[23]
*85 reg_div_di[24]
*86 reg_div_di[25]
*87 reg_div_di[26]
*88 reg_div_di[27]
*89 reg_div_di[28]
*90 reg_div_di[29]
*91 reg_div_di[2]
*92 reg_div_di[30]
*93 reg_div_di[31]
*94 reg_div_di[3]
*95 reg_div_di[4]
*96 reg_div_di[5]
*97 reg_div_di[6]
*98 reg_div_di[7]
*99 reg_div_di[8]
*100 reg_div_di[9]
*101 reg_div_do[0]
*102 reg_div_do[10]
*103 reg_div_do[11]
*104 reg_div_do[12]
*105 reg_div_do[13]
*106 reg_div_do[14]
*107 reg_div_do[15]
*108 reg_div_do[16]
*109 reg_div_do[17]
*110 reg_div_do[18]
*111 reg_div_do[19]
*112 reg_div_do[1]
*113 reg_div_do[20]
*114 reg_div_do[21]
*115 reg_div_do[22]
*116 reg_div_do[23]
*117 reg_div_do[24]
*118 reg_div_do[25]
*119 reg_div_do[26]
*120 reg_div_do[27]
*121 reg_div_do[28]
*122 reg_div_do[29]
*123 reg_div_do[2]
*124 reg_div_do[30]
*125 reg_div_do[31]
*126 reg_div_do[3]
*127 reg_div_do[4]
*128 reg_div_do[5]
*129 reg_div_do[6]
*130 reg_div_do[7]
*131 reg_div_do[8]
*132 reg_div_do[9]
*133 reg_div_we[0]
*134 reg_div_we[1]
*135 reg_div_we[2]
*136 reg_div_we[3]
*137 resetn
*138 uart_in[0]
*139 uart_in[1]
*140 net142
*141 net144
*142 uart_out[0]
*143 net143
*146 _0000_
*147 _0001_
*148 _0002_
*149 _0003_
*150 _0004_
*151 _0005_
*152 _0006_
*153 _0007_
*154 _0008_
*155 _0009_
*156 _0010_
*157 _0011_
*158 _0012_
*159 _0013_
*160 _0014_
*161 _0015_
*162 _0016_
*163 _0017_
*164 _0018_
*165 _0019_
*166 _0020_
*167 _0021_
*168 _0022_
*169 _0023_
*170 _0024_
*171 _0025_
*172 _0026_
*173 _0027_
*174 _0028_
*175 _0029_
*176 _0030_
*177 _0031_
*178 _0032_
*179 _0033_
*180 _0034_
*181 _0035_
*182 _0036_
*183 _0037_
*184 _0038_
*185 _0039_
*186 _0040_
*187 _0041_
*188 _0042_
*189 _0043_
*190 _0044_
*191 _0045_
*192 _0046_
*193 _0047_
*194 _0048_
*195 _0049_
*196 _0050_
*197 _0051_
*198 _0052_
*199 _0053_
*200 _0054_
*201 _0055_
*202 _0056_
*203 _0057_
*204 _0058_
*205 _0059_
*206 _0060_
*207 _0061_
*208 _0062_
*209 _0063_
*210 _0064_
*211 _0065_
*212 _0066_
*213 _0067_
*214 _0068_
*215 _0069_
*216 _0070_
*217 _0071_
*218 _0072_
*219 _0073_
*220 _0074_
*221 _0075_
*222 _0076_
*223 _0077_
*224 _0078_
*225 _0079_
*226 _0080_
*227 _0081_
*228 _0082_
*229 _0083_
*230 _0084_
*231 _0085_
*232 _0086_
*233 _0087_
*234 _0088_
*235 _0089_
*236 _0090_
*237 _0091_
*238 _0092_
*239 _0093_
*240 _0094_
*241 _0095_
*242 _0096_
*243 _0097_
*244 _0098_
*245 _0099_
*246 _0100_
*247 _0101_
*248 _0102_
*249 _0103_
*250 _0104_
*251 _0105_
*252 _0106_
*253 _0107_
*254 _0108_
*255 _0109_
*256 _0110_
*257 _0111_
*258 _0112_
*259 _0113_
*260 _0114_
*261 _0115_
*262 _0116_
*263 _0117_
*264 _0118_
*265 _0119_
*266 _0120_
*267 _0121_
*268 _0122_
*269 _0123_
*270 _0124_
*271 _0125_
*272 _0126_
*273 _0127_
*274 _0128_
*275 _0129_
*276 _0130_
*277 _0131_
*278 _0132_
*279 _0133_
*280 _0134_
*281 _0135_
*282 _0136_
*283 _0137_
*284 _0138_
*285 _0139_
*286 _0140_
*287 _0141_
*288 _0142_
*289 _0143_
*290 _0144_
*291 _0145_
*292 _0146_
*293 _0147_
*294 _0148_
*295 _0149_
*296 _0150_
*297 _0151_
*298 _0152_
*299 _0153_
*300 _0154_
*301 _0155_
*302 _0156_
*303 _0157_
*304 _0158_
*305 _0159_
*306 _0160_
*307 _0161_
*308 _0162_
*309 _0163_
*310 _0164_
*311 _0165_
*312 _0166_
*313 _0167_
*314 _0168_
*315 _0169_
*316 _0170_
*317 _0171_
*318 _0172_
*319 _0173_
*320 _0174_
*321 _0175_
*322 _0176_
*323 _0177_
*324 _0178_
*325 _0179_
*326 _0180_
*327 _0181_
*328 _0182_
*329 _0183_
*330 _0184_
*331 _0185_
*332 _0186_
*333 _0187_
*334 _0188_
*335 _0189_
*336 _0190_
*337 _0191_
*338 _0192_
*339 _0193_
*340 _0194_
*341 _0195_
*342 _0196_
*343 _0197_
*344 _0198_
*345 _0199_
*346 _0200_
*347 _0201_
*348 _0202_
*349 _0203_
*350 _0204_
*351 _0205_
*352 _0206_
*353 _0207_
*354 _0208_
*355 _0209_
*356 _0210_
*357 _0211_
*358 _0212_
*359 _0213_
*360 _0214_
*361 _0215_
*362 _0216_
*363 _0217_
*364 _0218_
*365 _0219_
*366 _0220_
*367 _0221_
*368 _0222_
*369 _0223_
*370 _0224_
*371 _0225_
*372 _0226_
*373 _0227_
*374 _0228_
*375 _0229_
*376 _0230_
*377 _0231_
*378 _0232_
*379 _0233_
*380 _0234_
*381 _0235_
*382 _0236_
*383 _0237_
*384 _0238_
*385 _0239_
*386 _0240_
*387 _0241_
*388 _0242_
*389 _0243_
*390 _0244_
*391 _0245_
*392 _0246_
*393 _0247_
*394 _0248_
*395 _0249_
*396 _0250_
*397 _0251_
*398 _0252_
*399 _0253_
*400 _0254_
*401 _0255_
*402 _0256_
*403 _0257_
*404 _0258_
*405 _0259_
*406 _0260_
*407 _0261_
*408 _0262_
*409 _0263_
*410 _0264_
*411 _0265_
*412 _0266_
*413 _0267_
*414 _0268_
*415 _0269_
*416 _0270_
*417 _0271_
*418 _0272_
*419 _0273_
*420 _0274_
*421 _0275_
*422 _0276_
*423 _0277_
*424 _0278_
*425 _0279_
*426 _0280_
*427 _0281_
*428 _0282_
*429 _0283_
*430 _0284_
*431 _0285_
*432 _0286_
*433 _0287_
*434 _0288_
*435 _0289_
*436 _0290_
*437 _0291_
*438 _0292_
*439 _0293_
*440 _0294_
*441 _0295_
*442 _0296_
*443 _0297_
*444 _0298_
*445 _0299_
*446 _0300_
*447 _0301_
*448 _0302_
*449 _0303_
*450 _0304_
*451 _0305_
*452 _0306_
*453 _0307_
*454 _0308_
*455 _0309_
*456 _0310_
*457 _0311_
*458 _0312_
*459 _0313_
*460 _0314_
*461 _0315_
*462 _0316_
*463 _0317_
*464 _0318_
*465 _0319_
*466 _0320_
*467 _0321_
*468 _0322_
*469 _0323_
*470 _0324_
*471 _0325_
*472 _0326_
*473 _0327_
*474 _0328_
*475 _0329_
*476 _0330_
*477 _0331_
*478 _0332_
*479 _0333_
*480 _0334_
*481 _0335_
*482 _0336_
*483 _0337_
*484 _0338_
*485 _0339_
*486 _0340_
*487 _0341_
*488 _0342_
*489 _0343_
*490 _0344_
*491 _0345_
*492 _0346_
*493 _0347_
*494 _0348_
*495 _0349_
*496 _0350_
*497 _0351_
*498 _0352_
*499 _0353_
*500 _0354_
*501 _0355_
*502 _0356_
*503 _0357_
*504 _0358_
*505 _0359_
*506 _0360_
*507 _0361_
*508 _0362_
*509 _0363_
*510 _0364_
*511 _0365_
*512 _0366_
*513 _0367_
*514 _0368_
*515 _0369_
*516 _0370_
*517 _0371_
*518 _0372_
*519 _0373_
*520 _0374_
*521 _0375_
*522 _0376_
*523 _0377_
*524 _0378_
*525 _0379_
*526 _0380_
*527 _0381_
*528 _0382_
*529 _0383_
*530 _0384_
*531 _0385_
*532 _0386_
*533 _0387_
*534 _0388_
*535 _0389_
*536 _0390_
*537 _0391_
*538 _0392_
*539 _0393_
*540 _0394_
*541 _0395_
*542 _0396_
*543 _0397_
*544 _0398_
*545 _0399_
*546 _0400_
*547 _0401_
*548 _0402_
*549 _0403_
*550 _0404_
*551 _0405_
*552 _0406_
*553 _0407_
*554 _0408_
*555 _0409_
*556 _0410_
*557 _0411_
*558 _0412_
*559 _0413_
*560 _0414_
*561 _0415_
*562 _0416_
*563 _0417_
*564 _0418_
*565 _0419_
*566 _0420_
*567 _0421_
*568 _0422_
*569 _0423_
*570 _0424_
*571 _0425_
*572 _0426_
*573 _0427_
*574 _0428_
*575 _0429_
*576 _0430_
*577 _0431_
*578 _0432_
*579 _0433_
*580 _0434_
*581 _0435_
*582 _0436_
*583 _0437_
*584 _0438_
*585 _0439_
*586 _0440_
*587 _0441_
*588 _0442_
*589 _0443_
*590 _0444_
*591 _0445_
*592 _0446_
*593 _0447_
*594 _0448_
*595 _0449_
*596 _0450_
*597 _0451_
*598 _0452_
*599 _0453_
*600 _0454_
*601 _0455_
*602 _0456_
*603 _0457_
*604 _0458_
*605 _0459_
*606 _0460_
*607 _0461_
*608 _0462_
*609 _0463_
*610 _0464_
*611 _0465_
*612 _0466_
*613 _0467_
*614 _0468_
*615 _0469_
*616 _0470_
*617 _0471_
*618 _0472_
*619 _0473_
*620 _0474_
*621 _0475_
*622 _0476_
*623 _0477_
*624 _0478_
*625 _0479_
*626 _0480_
*627 _0481_
*628 _0482_
*629 _0483_
*630 _0484_
*631 _0485_
*632 _0486_
*633 _0487_
*634 _0488_
*635 _0489_
*636 _0490_
*637 _0491_
*638 _0492_
*639 _0493_
*640 _0494_
*641 _0495_
*642 _0496_
*643 _0497_
*644 _0498_
*645 _0499_
*646 _0500_
*647 _0501_
*648 _0502_
*649 _0503_
*650 _0504_
*651 _0505_
*652 _0506_
*653 _0507_
*654 _0508_
*655 _0509_
*656 _0510_
*657 _0511_
*658 _0512_
*659 _0513_
*660 _0514_
*661 _0515_
*662 _0516_
*663 _0517_
*664 _0518_
*665 _0519_
*666 _0520_
*667 _0521_
*668 _0522_
*669 _0523_
*670 _0524_
*671 _0525_
*672 _0526_
*673 _0527_
*674 _0528_
*675 _0529_
*676 _0530_
*677 _0531_
*678 _0532_
*679 _0533_
*680 _0534_
*681 _0535_
*682 _0536_
*683 _0537_
*684 _0538_
*685 _0539_
*686 _0540_
*687 _0541_
*688 _0542_
*689 _0543_
*690 _0544_
*691 _0545_
*692 _0546_
*693 _0547_
*694 _0548_
*695 _0549_
*696 _0550_
*697 _0551_
*698 _0552_
*699 _0553_
*700 _0554_
*701 _0555_
*702 _0556_
*703 _0557_
*704 _0558_
*705 _0559_
*706 _0560_
*707 _0561_
*708 _0562_
*709 _0563_
*710 _0564_
*711 _0565_
*712 _0566_
*713 _0567_
*714 _0568_
*715 _0569_
*716 _0570_
*717 _0571_
*718 _0572_
*719 _0573_
*720 _0574_
*721 _0575_
*722 _0576_
*723 _0577_
*724 _0578_
*725 _0579_
*726 _0580_
*727 _0581_
*728 _0582_
*729 _0583_
*730 _0584_
*731 _0585_
*732 _0586_
*733 _0587_
*734 _0588_
*735 _0589_
*736 _0590_
*737 _0591_
*738 _0592_
*739 _0593_
*740 _0594_
*741 _0595_
*742 _0596_
*743 _0597_
*744 _0598_
*745 _0599_
*746 _0600_
*747 _0601_
*748 _0602_
*749 _0603_
*750 _0604_
*751 _0605_
*752 _0606_
*753 _0607_
*754 _0608_
*755 _0609_
*756 _0610_
*757 _0611_
*758 _0612_
*759 _0613_
*760 _0614_
*761 _0615_
*762 _0616_
*763 _0617_
*764 _0618_
*765 _0619_
*766 _0620_
*767 _0621_
*768 _0622_
*769 _0623_
*770 _0624_
*771 _0625_
*772 _0626_
*773 _0627_
*774 _0628_
*775 _0629_
*776 _0630_
*777 _0631_
*778 _0632_
*779 _0633_
*780 _0634_
*781 _0635_
*782 _0636_
*783 _0637_
*784 _0638_
*785 _0639_
*786 _0640_
*787 _0641_
*788 _0642_
*789 _0643_
*790 _0644_
*791 _0645_
*792 _0646_
*793 _0647_
*794 _0648_
*795 _0649_
*796 _0650_
*797 _0651_
*798 _0652_
*799 _0653_
*800 _0654_
*801 _0655_
*802 _0656_
*803 _0657_
*804 _0658_
*805 _0659_
*806 _0660_
*807 _0661_
*808 _0662_
*809 _0663_
*810 _0664_
*811 _0665_
*812 _0666_
*813 _0667_
*814 _0668_
*815 _0669_
*816 _0670_
*817 _0671_
*818 _0672_
*819 _0673_
*820 _0674_
*821 _0675_
*822 _0676_
*823 _0677_
*824 _0678_
*825 _0679_
*826 _0680_
*827 _0681_
*828 _0682_
*829 _0683_
*830 _0684_
*831 _0685_
*832 _0686_
*833 _0687_
*834 _0688_
*835 _0689_
*836 _0690_
*837 _0691_
*838 _0692_
*839 _0693_
*840 _0694_
*841 _0695_
*842 _0696_
*843 _0697_
*844 _0698_
*845 _0699_
*846 _0700_
*847 _0701_
*848 _0702_
*849 _0703_
*850 _0704_
*851 _0705_
*852 _0706_
*853 _0707_
*854 _0708_
*855 _0709_
*856 _0710_
*857 _0711_
*858 _0712_
*859 _0713_
*860 _0714_
*861 _0715_
*862 _0716_
*863 _0717_
*864 _0718_
*865 _0719_
*866 _0720_
*867 _0721_
*868 _0722_
*869 _0723_
*870 _0724_
*871 _0725_
*872 _0726_
*873 _0727_
*874 _0728_
*875 _0729_
*876 _0730_
*877 _0731_
*878 _0732_
*879 _0733_
*880 _0734_
*881 _0735_
*882 _0736_
*883 _0737_
*884 _0738_
*885 _0739_
*886 _0740_
*887 _0741_
*888 _0742_
*889 _0743_
*890 _0744_
*891 _0745_
*892 _0746_
*893 _0747_
*894 _0748_
*895 _0749_
*896 _0750_
*897 _0751_
*898 _0752_
*899 _0753_
*900 _0754_
*901 _0755_
*902 _0756_
*903 _0757_
*904 _0758_
*905 _0759_
*906 _0760_
*907 _0761_
*908 _0762_
*909 _0763_
*910 _0764_
*911 _0765_
*912 _0766_
*913 _0767_
*914 _0768_
*915 _0769_
*916 _0770_
*917 _0771_
*918 _0772_
*919 _0773_
*920 _0774_
*921 _0775_
*922 _0776_
*923 _0777_
*924 _0778_
*925 _0779_
*926 _0780_
*927 _0781_
*928 _0782_
*929 _0783_
*930 _0784_
*931 _0785_
*932 _0786_
*933 _0787_
*934 _0788_
*935 _0789_
*936 _0790_
*937 _0791_
*938 _0792_
*939 _0793_
*940 _0794_
*941 _0795_
*942 _0796_
*943 _0797_
*944 _0798_
*945 _0799_
*946 _0800_
*947 _0801_
*948 _0802_
*949 _0803_
*950 _0804_
*951 _0805_
*952 _0806_
*953 _0807_
*954 _0808_
*955 _0809_
*956 _0810_
*957 _0811_
*958 _0812_
*959 _0813_
*960 _0814_
*961 _0815_
*962 _0816_
*963 _0817_
*964 _0818_
*965 _0819_
*966 _0820_
*967 _0821_
*968 _0822_
*969 _0823_
*970 _0824_
*971 _0825_
*972 _0826_
*973 _0827_
*974 _0828_
*975 _0829_
*976 _0830_
*977 _0831_
*978 _0832_
*979 _0833_
*980 _0834_
*981 _0835_
*982 _0836_
*983 _0837_
*984 _0838_
*985 _0839_
*986 _0840_
*987 _0841_
*988 _0842_
*989 _0843_
*990 _0844_
*991 _0845_
*992 _0846_
*993 _0847_
*994 _0848_
*995 _0849_
*996 _0850_
*997 _0851_
*998 _0852_
*999 _0853_
*1000 _0854_
*1001 _0855_
*1002 _0856_
*1003 _0857_
*1004 _0858_
*1005 _0859_
*1006 _0860_
*1007 _0861_
*1008 _0862_
*1009 _0863_
*1010 _0864_
*1011 _0865_
*1012 _0866_
*1013 _0867_
*1014 _0868_
*1015 _0869_
*1016 _0870_
*1017 _0871_
*1018 _0872_
*1019 _0873_
*1020 _0874_
*1021 _0875_
*1022 _0876_
*1023 _0877_
*1024 _0878_
*1025 _0879_
*1026 _0880_
*1027 _0881_
*1028 _0882_
*1029 _0883_
*1030 _0884_
*1031 _0885_
*1032 _0886_
*1033 _0887_
*1034 _0888_
*1035 _0889_
*1036 _0890_
*1037 _0891_
*1038 _0892_
*1039 _0893_
*1040 _0894_
*1041 clknet_0_clk
*1042 clknet_4_0_0_clk
*1043 clknet_4_10_0_clk
*1044 clknet_4_11_0_clk
*1045 clknet_4_12_0_clk
*1046 clknet_4_13_0_clk
*1047 clknet_4_14_0_clk
*1048 clknet_4_15_0_clk
*1049 clknet_4_1_0_clk
*1050 clknet_4_2_0_clk
*1051 clknet_4_3_0_clk
*1052 clknet_4_4_0_clk
*1053 clknet_4_5_0_clk
*1054 clknet_4_6_0_clk
*1055 clknet_4_7_0_clk
*1056 clknet_4_8_0_clk
*1057 clknet_4_9_0_clk
*1058 net1
*1059 net10
*1060 net100
*1061 net101
*1062 net102
*1063 net103
*1064 net104
*1065 net105
*1066 net106
*1067 net107
*1068 net108
*1069 net109
*1070 net11
*1071 net110
*1072 net111
*1073 net112
*1074 net113
*1075 net114
*1076 net115
*1077 net116
*1078 net117
*1079 net118
*1080 net119
*1081 net12
*1082 net120
*1083 net121
*1084 net122
*1085 net123
*1086 net124
*1087 net125
*1088 net126
*1089 net127
*1090 net128
*1091 net129
*1092 net13
*1093 net130
*1094 net131
*1095 net132
*1096 net133
*1097 net134
*1098 net135
*1099 net136
*1100 net137
*1101 net138
*1102 net139
*1103 net14
*1104 net140
*1105 net141
*1106 net15
*1107 net16
*1108 net17
*1109 net18
*1110 net19
*1111 net2
*1112 net20
*1113 net21
*1114 net22
*1115 net23
*1116 net24
*1117 net25
*1118 net26
*1119 net27
*1120 net28
*1121 net29
*1122 net3
*1123 net30
*1124 net31
*1125 net32
*1126 net33
*1127 net34
*1128 net35
*1129 net36
*1130 net37
*1131 net38
*1132 net39
*1133 net4
*1134 net40
*1135 net41
*1136 net42
*1137 net43
*1138 net44
*1139 net45
*1140 net46
*1141 net47
*1142 net48
*1143 net49
*1144 net5
*1145 net50
*1146 net51
*1147 net52
*1148 net53
*1149 net54
*1150 net55
*1151 net56
*1152 net57
*1153 net58
*1154 net59
*1155 net6
*1156 net60
*1157 net61
*1158 net62
*1159 net63
*1160 net64
*1161 net65
*1162 net66
*1163 net67
*1164 net68
*1165 net69
*1166 net7
*1167 net70
*1168 net71
*1169 net72
*1170 net73
*1171 net74
*1172 net75
*1173 net76
*1174 net77
*1175 net78
*1176 net79
*1177 net8
*1178 net80
*1179 net81
*1180 net82
*1181 net83
*1182 net84
*1183 net85
*1184 net86
*1185 net87
*1186 net88
*1187 net89
*1188 net9
*1189 net90
*1190 net91
*1191 net92
*1192 net93
*1193 net94
*1194 net95
*1195 net96
*1196 net97
*1197 net98
*1198 net99
*1199 recv_buf_data\[0\]
*1200 recv_buf_data\[1\]
*1201 recv_buf_data\[2\]
*1202 recv_buf_data\[3\]
*1203 recv_buf_data\[4\]
*1204 recv_buf_data\[5\]
*1205 recv_buf_data\[6\]
*1206 recv_buf_data\[7\]
*1207 recv_buf_valid
*1208 recv_divcnt\[0\]
*1209 recv_divcnt\[10\]
*1210 recv_divcnt\[11\]
*1211 recv_divcnt\[12\]
*1212 recv_divcnt\[13\]
*1213 recv_divcnt\[14\]
*1214 recv_divcnt\[15\]
*1215 recv_divcnt\[16\]
*1216 recv_divcnt\[17\]
*1217 recv_divcnt\[18\]
*1218 recv_divcnt\[19\]
*1219 recv_divcnt\[1\]
*1220 recv_divcnt\[20\]
*1221 recv_divcnt\[21\]
*1222 recv_divcnt\[22\]
*1223 recv_divcnt\[23\]
*1224 recv_divcnt\[24\]
*1225 recv_divcnt\[25\]
*1226 recv_divcnt\[26\]
*1227 recv_divcnt\[27\]
*1228 recv_divcnt\[28\]
*1229 recv_divcnt\[29\]
*1230 recv_divcnt\[2\]
*1231 recv_divcnt\[30\]
*1232 recv_divcnt\[31\]
*1233 recv_divcnt\[3\]
*1234 recv_divcnt\[4\]
*1235 recv_divcnt\[5\]
*1236 recv_divcnt\[6\]
*1237 recv_divcnt\[7\]
*1238 recv_divcnt\[8\]
*1239 recv_divcnt\[9\]
*1240 recv_pattern\[0\]
*1241 recv_pattern\[1\]
*1242 recv_pattern\[2\]
*1243 recv_pattern\[3\]
*1244 recv_pattern\[4\]
*1245 recv_pattern\[5\]
*1246 recv_pattern\[6\]
*1247 recv_pattern\[7\]
*1248 recv_state\[0\]
*1249 recv_state\[1\]
*1250 recv_state\[2\]
*1251 recv_state\[3\]
*1252 send_bitcnt\[0\]
*1253 send_bitcnt\[1\]
*1254 send_bitcnt\[2\]
*1255 send_bitcnt\[3\]
*1256 send_divcnt\[0\]
*1257 send_divcnt\[10\]
*1258 send_divcnt\[11\]
*1259 send_divcnt\[12\]
*1260 send_divcnt\[13\]
*1261 send_divcnt\[14\]
*1262 send_divcnt\[15\]
*1263 send_divcnt\[16\]
*1264 send_divcnt\[17\]
*1265 send_divcnt\[18\]
*1266 send_divcnt\[19\]
*1267 send_divcnt\[1\]
*1268 send_divcnt\[20\]
*1269 send_divcnt\[21\]
*1270 send_divcnt\[22\]
*1271 send_divcnt\[23\]
*1272 send_divcnt\[24\]
*1273 send_divcnt\[25\]
*1274 send_divcnt\[26\]
*1275 send_divcnt\[27\]
*1276 send_divcnt\[28\]
*1277 send_divcnt\[29\]
*1278 send_divcnt\[2\]
*1279 send_divcnt\[30\]
*1280 send_divcnt\[31\]
*1281 send_divcnt\[3\]
*1282 send_divcnt\[4\]
*1283 send_divcnt\[5\]
*1284 send_divcnt\[6\]
*1285 send_divcnt\[7\]
*1286 send_divcnt\[8\]
*1287 send_divcnt\[9\]
*1288 send_dummy
*1289 send_pattern\[1\]
*1290 send_pattern\[2\]
*1291 send_pattern\[3\]
*1292 send_pattern\[4\]
*1293 send_pattern\[5\]
*1294 send_pattern\[6\]
*1295 send_pattern\[7\]
*1296 send_pattern\[8\]
*1297 ANTENNA__0962__I
*1298 ANTENNA__0971__A1
*1299 ANTENNA__0971__B2
*1300 ANTENNA__0972__I
*1301 ANTENNA__0973__I
*1302 ANTENNA__0979__B2
*1303 ANTENNA__0980__I
*1304 ANTENNA__0986__I
*1305 ANTENNA__1026__B
*1306 ANTENNA__1071__B2
*1307 ANTENNA__1077__C2
*1308 ANTENNA__1080__A1
*1309 ANTENNA__1081__B
*1310 ANTENNA__1091__B
*1311 ANTENNA__1092__A2
*1312 ANTENNA__1094__A1
*1313 ANTENNA__1101__A1
*1314 ANTENNA__1102__A2
*1315 ANTENNA__1103__A2
*1316 ANTENNA__1107__A2
*1317 ANTENNA__1115__I
*1318 ANTENNA__1117__A1
*1319 ANTENNA__1117__B
*1320 ANTENNA__1118__A1
*1321 ANTENNA__1120__A1
*1322 ANTENNA__1120__B
*1323 ANTENNA__1121__A1
*1324 ANTENNA__1123__I
*1325 ANTENNA__1124__I
*1326 ANTENNA__1125__A1
*1327 ANTENNA__1126__A1
*1328 ANTENNA__1139__I
*1329 ANTENNA__1143__A2
*1330 ANTENNA__1144__A2
*1331 ANTENNA__1149__A2
*1332 ANTENNA__1157__I
*1333 ANTENNA__1172__I
*1334 ANTENNA__1179__I
*1335 ANTENNA__1181__I
*1336 ANTENNA__1188__I
*1337 ANTENNA__1190__B
*1338 ANTENNA__1192__I
*1339 ANTENNA__1196__B
*1340 ANTENNA__1199__B
*1341 ANTENNA__1202__B
*1342 ANTENNA__1207__B
*1343 ANTENNA__1210__B
*1344 ANTENNA__1269__B2
*1345 ANTENNA__1280__A1
*1346 ANTENNA__1331__B
*1347 ANTENNA__1340__I
*1348 ANTENNA__1381__I
*1349 ANTENNA__1387__A1
*1350 ANTENNA__1394__B
*1351 ANTENNA__1401__A1
*1352 ANTENNA__1402__A3
*1353 ANTENNA__1403__B
*1354 ANTENNA__1417__A1
*1355 ANTENNA__1424__A1
*1356 ANTENNA__1426__A1
*1357 ANTENNA__1429__A1
*1358 ANTENNA__1444__A1
*1359 ANTENNA__1492__A1
*1360 ANTENNA__1505__B
*1361 ANTENNA__1510__I
*1362 ANTENNA__1511__A2
*1363 ANTENNA__1513__A1
*1364 ANTENNA__1517__A1
*1365 ANTENNA__1519__I
*1366 ANTENNA__1527__A1
*1367 ANTENNA__1535__A1
*1368 ANTENNA__1536__I
*1369 ANTENNA__1539__A1
*1370 ANTENNA__1540__I
*1371 ANTENNA__1546__A1
*1372 ANTENNA__1555__A1
*1373 ANTENNA__1562__A2
*1374 ANTENNA__1566__C
*1375 ANTENNA__1568__A1
*1376 ANTENNA__1569__I
*1377 ANTENNA__1575__A1
*1378 ANTENNA__1588__A2
*1379 ANTENNA__1590__I
*1380 ANTENNA__1606__A1
*1381 ANTENNA__1609__A1
*1382 ANTENNA__1611__A1
*1383 ANTENNA__1613__A3
*1384 ANTENNA__1616__B
*1385 ANTENNA__1644__A2
*1386 ANTENNA__1646__I
*1387 ANTENNA__1647__A2
*1388 ANTENNA__1647__B
*1389 ANTENNA__1649__A2
*1390 ANTENNA__1649__B
*1391 ANTENNA__1652__B
*1392 ANTENNA__1655__B
*1393 ANTENNA__1657__I
*1394 ANTENNA__1658__B
*1395 ANTENNA__1660__B
*1396 ANTENNA__1662__B
*1397 ANTENNA__1665__A1
*1398 ANTENNA__1666__I
*1399 ANTENNA__1668__A2
*1400 ANTENNA__1670__A1
*1401 ANTENNA__1674__A1
*1402 ANTENNA__1678__A1
*1403 ANTENNA__1680__A1
*1404 ANTENNA__1684__A1
*1405 ANTENNA__1688__A1
*1406 ANTENNA__1688__A2
*1407 ANTENNA__1689__I
*1408 ANTENNA__1690__A2
*1409 ANTENNA__1692__A2
*1410 ANTENNA__1693__A1
*1411 ANTENNA__1695__A1
*1412 ANTENNA__1698__A1
*1413 ANTENNA__1699__I
*1414 ANTENNA__1700__I
*1415 ANTENNA__1702__A1
*1416 ANTENNA__1706__A1
*1417 ANTENNA__1707__A3
*1418 ANTENNA__1709__A1
*1419 ANTENNA__1710__I
*1420 ANTENNA__1714__A1
*1421 ANTENNA__1716__A1
*1422 ANTENNA__1721__C
*1423 ANTENNA__1724__A1
*1424 ANTENNA__1729__A1
*1425 ANTENNA__1731__A1
*1426 ANTENNA__1734__C
*1427 ANTENNA__1738__A1
*1428 ANTENNA__1741__C
*1429 ANTENNA__1743__A1
*1430 ANTENNA__1746__C
*1431 ANTENNA__1750__A1
*1432 ANTENNA__1754__C
*1433 ANTENNA__1757__A1
*1434 ANTENNA__1760__A1
*1435 ANTENNA__1763__A1
*1436 ANTENNA__1766__A1
*1437 ANTENNA__1769__A1
*1438 ANTENNA__1771__A1
*1439 ANTENNA__1775__B
*1440 ANTENNA__1778__A2
*1441 ANTENNA__1778__B
*1442 ANTENNA__1781__I
*1443 ANTENNA__1800__CLK
*1444 ANTENNA__1802__CLK
*1445 ANTENNA__1803__CLK
*1446 ANTENNA__1804__CLK
*1447 ANTENNA__1805__CLK
*1448 ANTENNA__1806__CLK
*1449 ANTENNA__1807__CLK
*1450 ANTENNA__1808__CLK
*1451 ANTENNA__1812__CLK
*1452 ANTENNA__1813__CLK
*1453 ANTENNA__1814__CLK
*1454 ANTENNA__1815__CLK
*1455 ANTENNA__1816__CLK
*1456 ANTENNA__1817__CLK
*1457 ANTENNA__1818__CLK
*1458 ANTENNA__1819__CLK
*1459 ANTENNA__1820__CLK
*1460 ANTENNA__1821__CLK
*1461 ANTENNA__1822__CLK
*1462 ANTENNA__1824__CLK
*1463 ANTENNA__1825__CLK
*1464 ANTENNA__1826__CLK
*1465 ANTENNA__1827__CLK
*1466 ANTENNA__1828__CLK
*1467 ANTENNA__1835__CLK
*1468 ANTENNA__1841__CLK
*1469 ANTENNA__1842__CLK
*1470 ANTENNA__1843__CLK
*1471 ANTENNA__1844__CLK
*1472 ANTENNA__1845__CLK
*1473 ANTENNA__1846__CLK
*1474 ANTENNA__1852__CLK
*1475 ANTENNA__1853__CLK
*1476 ANTENNA__1854__CLK
*1477 ANTENNA__1855__CLK
*1478 ANTENNA__1856__CLK
*1479 ANTENNA__1864__CLK
*1480 ANTENNA__1868__CLK
*1481 ANTENNA__1879__CLK
*1482 ANTENNA__1880__CLK
*1483 ANTENNA__1881__CLK
*1484 ANTENNA__1882__CLK
*1485 ANTENNA__1883__CLK
*1486 ANTENNA__1884__CLK
*1487 ANTENNA__1885__CLK
*1488 ANTENNA__1886__CLK
*1489 ANTENNA__1887__CLK
*1490 ANTENNA__1888__CLK
*1491 ANTENNA__1889__CLK
*1492 ANTENNA__1890__CLK
*1493 ANTENNA__1891__CLK
*1494 ANTENNA__1892__CLK
*1495 ANTENNA__1893__CLK
*1496 ANTENNA__1898__CLK
*1497 ANTENNA__1899__CLK
*1498 ANTENNA__1900__CLK
*1499 ANTENNA__1901__CLK
*1500 ANTENNA__1902__CLK
*1501 ANTENNA__1903__CLK
*1502 ANTENNA__1911__CLK
*1503 ANTENNA__1912__CLK
*1504 ANTENNA__1913__CLK
*1505 ANTENNA__1914__CLK
*1506 ANTENNA__1915__CLK
*1507 ANTENNA__1916__CLK
*1508 ANTENNA__1917__CLK
*1509 ANTENNA__1918__CLK
*1510 ANTENNA__1922__CLK
*1511 ANTENNA__1923__CLK
*1512 ANTENNA__1925__CLK
*1513 ANTENNA__1926__CLK
*1514 ANTENNA__1927__CLK
*1515 ANTENNA__1935__I
*1516 ANTENNA__1936__I
*1517 ANTENNA__1937__I
*1518 ANTENNA__1938__I
*1519 ANTENNA__1942__I
*1520 ANTENNA__1943__I
*1521 ANTENNA__1947__I
*1522 ANTENNA__1948__I
*1523 ANTENNA__1949__I
*1524 ANTENNA__1950__I
*1525 ANTENNA__1951__I
*1526 ANTENNA__1955__I
*1527 ANTENNA_clkbuf_0_clk_I
*1528 ANTENNA_clkbuf_4_0_0_clk_I
*1529 ANTENNA_clkbuf_4_10_0_clk_I
*1530 ANTENNA_clkbuf_4_11_0_clk_I
*1531 ANTENNA_clkbuf_4_12_0_clk_I
*1532 ANTENNA_clkbuf_4_13_0_clk_I
*1533 ANTENNA_clkbuf_4_14_0_clk_I
*1534 ANTENNA_clkbuf_4_15_0_clk_I
*1535 ANTENNA_clkbuf_4_1_0_clk_I
*1536 ANTENNA_clkbuf_4_2_0_clk_I
*1537 ANTENNA_clkbuf_4_3_0_clk_I
*1538 ANTENNA_clkbuf_4_4_0_clk_I
*1539 ANTENNA_clkbuf_4_5_0_clk_I
*1540 ANTENNA_clkbuf_4_6_0_clk_I
*1541 ANTENNA_clkbuf_4_7_0_clk_I
*1542 ANTENNA_clkbuf_4_8_0_clk_I
*1543 ANTENNA_clkbuf_4_9_0_clk_I
*1544 ANTENNA_fanout115_I
*1545 ANTENNA_fanout121_I
*1546 ANTENNA_fanout123_I
*1547 ANTENNA_fanout124_I
*1548 ANTENNA_fanout125_I
*1549 ANTENNA_input10_I
*1550 ANTENNA_input11_I
*1551 ANTENNA_input12_I
*1552 ANTENNA_input13_I
*1553 ANTENNA_input14_I
*1554 ANTENNA_input15_I
*1555 ANTENNA_input16_I
*1556 ANTENNA_input17_I
*1557 ANTENNA_input18_I
*1558 ANTENNA_input19_I
*1559 ANTENNA_input1_I
*1560 ANTENNA_input20_I
*1561 ANTENNA_input21_I
*1562 ANTENNA_input22_I
*1563 ANTENNA_input23_I
*1564 ANTENNA_input24_I
*1565 ANTENNA_input25_I
*1566 ANTENNA_input26_I
*1567 ANTENNA_input27_I
*1568 ANTENNA_input28_I
*1569 ANTENNA_input29_I
*1570 ANTENNA_input2_I
*1571 ANTENNA_input30_I
*1572 ANTENNA_input31_I
*1573 ANTENNA_input32_I
*1574 ANTENNA_input33_I
*1575 ANTENNA_input34_I
*1576 ANTENNA_input35_I
*1577 ANTENNA_input36_I
*1578 ANTENNA_input37_I
*1579 ANTENNA_input38_I
*1580 ANTENNA_input39_I
*1581 ANTENNA_input3_I
*1582 ANTENNA_input40_I
*1583 ANTENNA_input41_I
*1584 ANTENNA_input42_I
*1585 ANTENNA_input43_I
*1586 ANTENNA_input44_I
*1587 ANTENNA_input45_I
*1588 ANTENNA_input46_I
*1589 ANTENNA_input47_I
*1590 ANTENNA_input48_I
*1591 ANTENNA_input4_I
*1592 ANTENNA_input5_I
*1593 ANTENNA_input6_I
*1594 ANTENNA_input7_I
*1595 ANTENNA_input8_I
*1596 ANTENNA_input9_I
*1597 ANTENNA_output108_I
*1598 ANTENNA_output110_I
*1599 ANTENNA_output111_I
*1600 ANTENNA_output63_I
*1601 ANTENNA_output93_I
*1602 FILLER_0_0_2
*1603 FILLER_0_0_334
*1604 FILLER_0_0_338
*1605 FILLER_0_0_36
*1606 FILLER_0_0_376
*1607 FILLER_0_0_410
*1608 FILLER_0_0_418
*1609 FILLER_0_0_46
*1610 FILLER_0_10_104
*1611 FILLER_0_10_107
*1612 FILLER_0_10_124
*1613 FILLER_0_10_130
*1614 FILLER_0_10_134
*1615 FILLER_0_10_142
*1616 FILLER_0_10_164
*1617 FILLER_0_10_172
*1618 FILLER_0_10_185
*1619 FILLER_0_10_187
*1620 FILLER_0_10_231
*1621 FILLER_0_10_239
*1622 FILLER_0_10_243
*1623 FILLER_0_10_247
*1624 FILLER_0_10_249
*1625 FILLER_0_10_258
*1626 FILLER_0_10_269
*1627 FILLER_0_10_297
*1628 FILLER_0_10_31
*1629 FILLER_0_10_322
*1630 FILLER_0_10_330
*1631 FILLER_0_10_346
*1632 FILLER_0_10_350
*1633 FILLER_0_10_352
*1634 FILLER_0_10_37
*1635 FILLER_0_10_384
*1636 FILLER_0_10_387
*1637 FILLER_0_10_391
*1638 FILLER_0_10_393
*1639 FILLER_0_10_41
*1640 FILLER_0_10_57
*1641 FILLER_0_10_65
*1642 FILLER_0_11_10
*1643 FILLER_0_11_125
*1644 FILLER_0_11_127
*1645 FILLER_0_11_137
*1646 FILLER_0_11_139
*1647 FILLER_0_11_14
*1648 FILLER_0_11_142
*1649 FILLER_0_11_146
*1650 FILLER_0_11_188
*1651 FILLER_0_11_199
*1652 FILLER_0_11_2
*1653 FILLER_0_11_204
*1654 FILLER_0_11_218
*1655 FILLER_0_11_263
*1656 FILLER_0_11_282
*1657 FILLER_0_11_286
*1658 FILLER_0_11_306
*1659 FILLER_0_11_339
*1660 FILLER_0_11_347
*1661 FILLER_0_11_360
*1662 FILLER_0_11_368
*1663 FILLER_0_11_372
*1664 FILLER_0_11_380
*1665 FILLER_0_11_50
*1666 FILLER_0_11_55
*1667 FILLER_0_11_59
*1668 FILLER_0_11_63
*1669 FILLER_0_11_80
*1670 FILLER_0_11_84
*1671 FILLER_0_12_103
*1672 FILLER_0_12_111
*1673 FILLER_0_12_115
*1674 FILLER_0_12_136
*1675 FILLER_0_12_144
*1676 FILLER_0_12_151
*1677 FILLER_0_12_163
*1678 FILLER_0_12_171
*1679 FILLER_0_12_177
*1680 FILLER_0_12_18
*1681 FILLER_0_12_2
*1682 FILLER_0_12_234
*1683 FILLER_0_12_247
*1684 FILLER_0_12_257
*1685 FILLER_0_12_265
*1686 FILLER_0_12_269
*1687 FILLER_0_12_271
*1688 FILLER_0_12_280
*1689 FILLER_0_12_312
*1690 FILLER_0_12_314
*1691 FILLER_0_12_317
*1692 FILLER_0_12_32
*1693 FILLER_0_12_333
*1694 FILLER_0_12_34
*1695 FILLER_0_12_341
*1696 FILLER_0_12_343
*1697 FILLER_0_12_352
*1698 FILLER_0_12_37
*1699 FILLER_0_12_387
*1700 FILLER_0_12_49
*1701 FILLER_0_12_65
*1702 FILLER_0_12_83
*1703 FILLER_0_12_99
*1704 FILLER_0_13_115
*1705 FILLER_0_13_131
*1706 FILLER_0_13_139
*1707 FILLER_0_13_142
*1708 FILLER_0_13_144
*1709 FILLER_0_13_153
*1710 FILLER_0_13_157
*1711 FILLER_0_13_165
*1712 FILLER_0_13_195
*1713 FILLER_0_13_203
*1714 FILLER_0_13_209
*1715 FILLER_0_13_212
*1716 FILLER_0_13_228
*1717 FILLER_0_13_240
*1718 FILLER_0_13_244
*1719 FILLER_0_13_253
*1720 FILLER_0_13_261
*1721 FILLER_0_13_263
*1722 FILLER_0_13_274
*1723 FILLER_0_13_278
*1724 FILLER_0_13_282
*1725 FILLER_0_13_286
*1726 FILLER_0_13_288
*1727 FILLER_0_13_304
*1728 FILLER_0_13_31
*1729 FILLER_0_13_316
*1730 FILLER_0_13_320
*1731 FILLER_0_13_327
*1732 FILLER_0_13_335
*1733 FILLER_0_13_339
*1734 FILLER_0_13_35
*1735 FILLER_0_13_371
*1736 FILLER_0_13_379
*1737 FILLER_0_13_385
*1738 FILLER_0_13_389
*1739 FILLER_0_13_395
*1740 FILLER_0_13_409
*1741 FILLER_0_13_411
*1742 FILLER_0_13_43
*1743 FILLER_0_13_47
*1744 FILLER_0_13_49
*1745 FILLER_0_13_67
*1746 FILLER_0_13_69
*1747 FILLER_0_13_83
*1748 FILLER_0_13_91
*1749 FILLER_0_14_103
*1750 FILLER_0_14_131
*1751 FILLER_0_14_139
*1752 FILLER_0_14_161
*1753 FILLER_0_14_165
*1754 FILLER_0_14_173
*1755 FILLER_0_14_18
*1756 FILLER_0_14_189
*1757 FILLER_0_14_197
*1758 FILLER_0_14_2
*1759 FILLER_0_14_201
*1760 FILLER_0_14_225
*1761 FILLER_0_14_238
*1762 FILLER_0_14_242
*1763 FILLER_0_14_244
*1764 FILLER_0_14_256
*1765 FILLER_0_14_27
*1766 FILLER_0_14_273
*1767 FILLER_0_14_277
*1768 FILLER_0_14_279
*1769 FILLER_0_14_285
*1770 FILLER_0_14_293
*1771 FILLER_0_14_312
*1772 FILLER_0_14_314
*1773 FILLER_0_14_317
*1774 FILLER_0_14_325
*1775 FILLER_0_14_332
*1776 FILLER_0_14_348
*1777 FILLER_0_14_352
*1778 FILLER_0_14_354
*1779 FILLER_0_14_361
*1780 FILLER_0_14_365
*1781 FILLER_0_14_381
*1782 FILLER_0_14_393
*1783 FILLER_0_14_403
*1784 FILLER_0_14_413
*1785 FILLER_0_14_43
*1786 FILLER_0_14_45
*1787 FILLER_0_14_83
*1788 FILLER_0_15_105
*1789 FILLER_0_15_130
*1790 FILLER_0_15_134
*1791 FILLER_0_15_171
*1792 FILLER_0_15_173
*1793 FILLER_0_15_2
*1794 FILLER_0_15_20
*1795 FILLER_0_15_203
*1796 FILLER_0_15_207
*1797 FILLER_0_15_209
*1798 FILLER_0_15_229
*1799 FILLER_0_15_235
*1800 FILLER_0_15_243
*1801 FILLER_0_15_282