*SPEF "ieee 1481-1999"
*DESIGN "simple_interconnect"
*DATE "11:11:11 Fri 11 11, 1111"
*VENDOR "OpenRCX"
*PROGRAM "Parallel Extraction"
*VERSION "1.0"
*DESIGN_FLOW "NAME_SCOPE LOCAL" "PIN_CAP NONE"
*DIVIDER /
*DELIMITER :
*BUS_DELIMITER []
*T_UNIT 1 NS
*C_UNIT 1 PF
*R_UNIT 1 OHM
*L_UNIT 1 HENRY

*NAME_MAP
*1 clk
*2 gpio_in[0]
*3 gpio_in[10]
*4 gpio_in[11]
*5 gpio_in[12]
*6 gpio_in[13]
*7 gpio_in[14]
*8 gpio_in[15]
*9 gpio_in[1]
*10 gpio_in[2]
*11 gpio_in[3]
*12 gpio_in[4]
*13 gpio_in[5]
*14 gpio_in[6]
*15 gpio_in[7]
*16 gpio_in[8]
*17 gpio_in[9]
*18 net343
*19 net353
*20 net354
*21 net355
*22 net356
*23 net357
*24 net358
*25 net344
*26 net345
*27 net346
*28 net347
*29 net348
*30 net349
*31 net350
*32 net351
*33 net352
*34 gpio_out[0]
*35 gpio_out[10]
*36 gpio_out[11]
*37 gpio_out[12]
*38 gpio_out[13]
*39 gpio_out[14]
*40 gpio_out[15]
*41 gpio_out[1]
*42 gpio_out[2]
*43 gpio_out[3]
*44 gpio_out[4]
*45 gpio_out[5]
*46 gpio_out[6]
*47 gpio_out[7]
*48 gpio_out[8]
*49 gpio_out[9]
*50 mem_addr[0]
*51 mem_addr[10]
*52 mem_addr[11]
*53 mem_addr[12]
*54 mem_addr[13]
*55 mem_addr[14]
*56 mem_addr[15]
*57 mem_addr[16]
*58 mem_addr[17]
*59 mem_addr[18]
*60 mem_addr[19]
*61 mem_addr[1]
*62 mem_addr[20]
*63 mem_addr[21]
*64 mem_addr[22]
*65 mem_addr[23]
*66 mem_addr[24]
*67 mem_addr[25]
*68 mem_addr[26]
*69 mem_addr[27]
*70 mem_addr[28]
*71 mem_addr[29]
*72 mem_addr[2]
*73 mem_addr[30]
*74 mem_addr[31]
*75 mem_addr[3]
*76 mem_addr[4]
*77 mem_addr[5]
*78 mem_addr[6]
*79 mem_addr[7]
*80 mem_addr[8]
*81 mem_addr[9]
*82 mem_instr
*83 mem_rdata[0]
*84 mem_rdata[10]
*85 mem_rdata[11]
*86 mem_rdata[12]
*87 mem_rdata[13]
*88 mem_rdata[14]
*89 mem_rdata[15]
*90 mem_rdata[16]
*91 mem_rdata[17]
*92 mem_rdata[18]
*93 mem_rdata[19]
*94 mem_rdata[1]
*95 mem_rdata[20]
*96 mem_rdata[21]
*97 mem_rdata[22]
*98 mem_rdata[23]
*99 mem_rdata[24]
*100 mem_rdata[25]
*101 mem_rdata[26]
*102 mem_rdata[27]
*103 mem_rdata[28]
*104 mem_rdata[29]
*105 mem_rdata[2]
*106 mem_rdata[30]
*107 mem_rdata[31]
*108 mem_rdata[3]
*109 mem_rdata[4]
*110 mem_rdata[5]
*111 mem_rdata[6]
*112 mem_rdata[7]
*113 mem_rdata[8]
*114 mem_rdata[9]
*115 mem_ready
*116 mem_valid
*117 mem_wdata[0]
*118 mem_wdata[10]
*119 mem_wdata[11]
*120 mem_wdata[12]
*121 mem_wdata[13]
*122 mem_wdata[14]
*123 mem_wdata[15]
*124 mem_wdata[16]
*125 mem_wdata[17]
*126 mem_wdata[18]
*127 mem_wdata[19]
*128 mem_wdata[1]
*129 mem_wdata[20]
*130 mem_wdata[21]
*131 mem_wdata[22]
*132 mem_wdata[23]
*133 mem_wdata[24]
*134 mem_wdata[25]
*135 mem_wdata[26]
*136 mem_wdata[27]
*137 mem_wdata[28]
*138 mem_wdata[29]
*139 mem_wdata[2]
*140 mem_wdata[30]
*141 mem_wdata[31]
*142 mem_wdata[3]
*143 mem_wdata[4]
*144 mem_wdata[5]
*145 mem_wdata[6]
*146 mem_wdata[7]
*147 mem_wdata[8]
*148 mem_wdata[9]
*149 mem_wstrb[0]
*150 mem_wstrb[1]
*151 mem_wstrb[2]
*152 mem_wstrb[3]
*153 ram_gwenb[0]
*154 ram_gwenb[1]
*155 ram_gwenb[2]
*156 ram_gwenb[3]
*157 ram_rdata[0]
*158 ram_rdata[10]
*159 ram_rdata[11]
*160 ram_rdata[12]
*161 ram_rdata[13]
*162 ram_rdata[14]
*163 ram_rdata[15]
*164 ram_rdata[16]
*165 ram_rdata[17]
*166 ram_rdata[18]
*167 ram_rdata[19]
*168 ram_rdata[1]
*169 ram_rdata[20]
*170 ram_rdata[21]
*171 ram_rdata[22]
*172 ram_rdata[23]
*173 ram_rdata[24]
*174 ram_rdata[25]
*175 ram_rdata[26]
*176 ram_rdata[27]
*177 ram_rdata[28]
*178 ram_rdata[29]
*179 ram_rdata[2]
*180 ram_rdata[30]
*181 ram_rdata[31]
*182 ram_rdata[3]
*183 ram_rdata[4]
*184 ram_rdata[5]
*185 ram_rdata[6]
*186 ram_rdata[7]
*187 ram_rdata[8]
*188 ram_rdata[9]
*189 ram_wenb[0]
*190 ram_wenb[10]
*191 ram_wenb[11]
*192 ram_wenb[12]
*193 ram_wenb[13]
*194 ram_wenb[14]
*195 ram_wenb[15]
*196 ram_wenb[16]
*197 ram_wenb[17]
*198 ram_wenb[18]
*199 ram_wenb[19]
*200 ram_wenb[1]
*201 ram_wenb[20]
*202 ram_wenb[21]
*203 ram_wenb[22]
*204 ram_wenb[23]
*205 ram_wenb[24]
*206 ram_wenb[25]
*207 ram_wenb[26]
*208 ram_wenb[27]
*209 ram_wenb[28]
*210 ram_wenb[29]
*211 ram_wenb[2]
*212 ram_wenb[30]
*213 ram_wenb[31]
*214 ram_wenb[3]
*215 ram_wenb[4]
*216 ram_wenb[5]
*217 ram_wenb[6]
*218 ram_wenb[7]
*219 ram_wenb[8]
*220 ram_wenb[9]
*221 resetn
*222 simpleuart_dat_re
*223 simpleuart_dat_we
*224 simpleuart_div_we[0]
*225 simpleuart_div_we[1]
*226 simpleuart_div_we[2]
*227 simpleuart_div_we[3]
*228 simpleuart_reg_dat_do[0]
*229 simpleuart_reg_dat_do[10]
*230 simpleuart_reg_dat_do[11]
*231 simpleuart_reg_dat_do[12]
*232 simpleuart_reg_dat_do[13]
*233 simpleuart_reg_dat_do[14]
*234 simpleuart_reg_dat_do[15]
*235 simpleuart_reg_dat_do[16]
*236 simpleuart_reg_dat_do[17]
*237 simpleuart_reg_dat_do[18]
*238 simpleuart_reg_dat_do[19]
*239 simpleuart_reg_dat_do[1]
*240 simpleuart_reg_dat_do[20]
*241 simpleuart_reg_dat_do[21]
*242 simpleuart_reg_dat_do[22]
*243 simpleuart_reg_dat_do[23]
*244 simpleuart_reg_dat_do[24]
*245 simpleuart_reg_dat_do[25]
*246 simpleuart_reg_dat_do[26]
*247 simpleuart_reg_dat_do[27]
*248 simpleuart_reg_dat_do[28]
*249 simpleuart_reg_dat_do[29]
*250 simpleuart_reg_dat_do[2]
*251 simpleuart_reg_dat_do[30]
*252 simpleuart_reg_dat_do[31]
*253 simpleuart_reg_dat_do[3]
*254 simpleuart_reg_dat_do[4]
*255 simpleuart_reg_dat_do[5]
*256 simpleuart_reg_dat_do[6]
*257 simpleuart_reg_dat_do[7]
*258 simpleuart_reg_dat_do[8]
*259 simpleuart_reg_dat_do[9]
*260 simpleuart_reg_dat_wait
*261 simpleuart_reg_div_do[0]
*262 simpleuart_reg_div_do[10]
*263 simpleuart_reg_div_do[11]
*264 simpleuart_reg_div_do[12]
*265 simpleuart_reg_div_do[13]
*266 simpleuart_reg_div_do[14]
*267 simpleuart_reg_div_do[15]
*268 simpleuart_reg_div_do[16]
*269 simpleuart_reg_div_do[17]
*270 simpleuart_reg_div_do[18]
*271 simpleuart_reg_div_do[19]
*272 simpleuart_reg_div_do[1]
*273 simpleuart_reg_div_do[20]
*274 simpleuart_reg_div_do[21]
*275 simpleuart_reg_div_do[22]
*276 simpleuart_reg_div_do[23]
*277 simpleuart_reg_div_do[24]
*278 simpleuart_reg_div_do[25]
*279 simpleuart_reg_div_do[26]
*280 simpleuart_reg_div_do[27]
*281 simpleuart_reg_div_do[28]
*282 simpleuart_reg_div_do[29]
*283 simpleuart_reg_div_do[2]
*284 simpleuart_reg_div_do[30]
*285 simpleuart_reg_div_do[31]
*286 simpleuart_reg_div_do[3]
*287 simpleuart_reg_div_do[4]
*288 simpleuart_reg_div_do[5]
*289 simpleuart_reg_div_do[6]
*290 simpleuart_reg_div_do[7]
*291 simpleuart_reg_div_do[8]
*292 simpleuart_reg_div_do[9]
*293 spimem_rdata[0]
*294 spimem_rdata[10]
*295 spimem_rdata[11]
*296 spimem_rdata[12]
*297 spimem_rdata[13]
*298 spimem_rdata[14]
*299 spimem_rdata[15]
*300 spimem_rdata[16]
*301 spimem_rdata[17]
*302 spimem_rdata[18]
*303 spimem_rdata[19]
*304 spimem_rdata[1]
*305 spimem_rdata[20]
*306 spimem_rdata[21]
*307 spimem_rdata[22]
*308 spimem_rdata[23]
*309 spimem_rdata[24]
*310 spimem_rdata[25]
*311 spimem_rdata[26]
*312 spimem_rdata[27]
*313 spimem_rdata[28]
*314 spimem_rdata[29]
*315 spimem_rdata[2]
*316 spimem_rdata[30]
*317 spimem_rdata[31]
*318 spimem_rdata[3]
*319 spimem_rdata[4]
*320 spimem_rdata[5]
*321 spimem_rdata[6]
*322 spimem_rdata[7]
*323 spimem_rdata[8]
*324 spimem_rdata[9]
*325 spimem_ready
*326 spimem_valid
*327 spimemio_cfgreg_do[0]
*328 spimemio_cfgreg_do[10]
*329 spimemio_cfgreg_do[11]
*330 spimemio_cfgreg_do[12]
*331 spimemio_cfgreg_do[13]
*332 spimemio_cfgreg_do[14]
*333 spimemio_cfgreg_do[15]
*334 spimemio_cfgreg_do[16]
*335 spimemio_cfgreg_do[17]
*336 spimemio_cfgreg_do[18]
*337 spimemio_cfgreg_do[19]
*338 spimemio_cfgreg_do[1]
*339 spimemio_cfgreg_do[20]
*340 spimemio_cfgreg_do[21]
*341 spimemio_cfgreg_do[22]
*342 spimemio_cfgreg_do[23]
*343 spimemio_cfgreg_do[24]
*344 spimemio_cfgreg_do[25]
*345 spimemio_cfgreg_do[26]
*346 spimemio_cfgreg_do[27]
*347 spimemio_cfgreg_do[28]
*348 spimemio_cfgreg_do[29]
*349 spimemio_cfgreg_do[2]
*350 spimemio_cfgreg_do[30]
*351 spimemio_cfgreg_do[31]
*352 spimemio_cfgreg_do[3]
*353 spimemio_cfgreg_do[4]
*354 spimemio_cfgreg_do[5]
*355 spimemio_cfgreg_do[6]
*356 spimemio_cfgreg_do[7]
*357 spimemio_cfgreg_do[8]
*358 spimemio_cfgreg_do[9]
*359 spimemio_cfgreg_we[0]
*360 spimemio_cfgreg_we[1]
*361 spimemio_cfgreg_we[2]
*362 spimemio_cfgreg_we[3]
*365 _0000_
*366 _0001_
*367 _0002_
*368 _0003_
*369 _0004_
*370 _0005_
*371 _0006_
*372 _0007_
*373 _0008_
*374 _0009_
*375 _0010_
*376 _0011_
*377 _0012_
*378 _0013_
*379 _0014_
*380 _0015_
*381 _0016_
*382 _0017_
*383 _0018_
*384 _0019_
*385 _0020_
*386 _0021_
*387 _0022_
*388 _0023_
*389 _0024_
*390 _0025_
*391 _0026_
*392 _0027_
*393 _0028_
*394 _0029_
*395 _0030_
*396 _0031_
*397 _0032_
*398 _0033_
*399 _0034_
*400 _0035_
*401 _0036_
*402 _0037_
*403 _0038_
*404 _0039_
*405 _0040_
*406 _0041_
*407 _0042_
*408 _0043_
*409 _0044_
*410 _0045_
*411 _0046_
*412 _0047_
*413 _0048_
*414 _0049_
*415 _0050_
*416 _0051_
*417 _0052_
*418 _0053_
*419 _0054_
*420 _0055_
*421 _0056_
*422 _0057_
*423 _0058_
*424 _0059_
*425 _0060_
*426 _0061_
*427 _0062_
*428 _0063_
*429 _0064_
*430 _0065_
*431 _0066_
*432 _0067_
*433 _0068_
*434 _0069_
*435 _0070_
*436 _0071_
*437 _0072_
*438 _0073_
*439 _0074_
*440 _0075_
*441 _0076_
*442 _0077_
*443 _0078_
*444 _0079_
*445 _0080_
*446 _0081_
*447 _0082_
*448 _0083_
*449 _0084_
*450 _0085_
*451 _0086_
*452 _0087_
*453 _0088_
*454 _0089_
*455 _0090_
*456 _0091_
*457 _0092_
*458 _0093_
*459 _0094_
*460 _0095_
*461 _0096_
*462 _0097_
*463 _0098_
*464 _0099_
*465 _0100_
*466 _0101_
*467 _0102_
*468 _0103_
*469 _0104_
*470 _0105_
*471 _0106_
*472 _0107_
*473 _0108_
*474 _0109_
*475 _0110_
*476 _0111_
*477 _0112_
*478 _0113_
*479 _0114_
*480 _0115_
*481 _0116_
*482 _0117_
*483 _0118_
*484 _0119_
*485 _0120_
*486 _0121_
*487 _0122_
*488 _0123_
*489 _0124_
*490 _0125_
*491 _0126_
*492 _0127_
*493 _0128_
*494 _0129_
*495 _0130_
*496 _0131_
*497 _0132_
*498 _0133_
*499 _0134_
*500 _0135_
*501 _0136_
*502 _0137_
*503 _0138_
*504 _0139_
*505 _0140_
*506 _0141_
*507 _0142_
*508 _0143_
*509 _0144_
*510 _0145_
*511 _0146_
*512 _0147_
*513 _0148_
*514 _0149_
*515 _0150_
*516 _0151_
*517 _0152_
*518 _0153_
*519 _0154_
*520 _0155_
*521 _0156_
*522 _0157_
*523 _0158_
*524 _0159_
*525 _0160_
*526 _0161_
*527 _0162_
*528 _0163_
*529 _0164_
*530 _0165_
*531 _0166_
*532 _0167_
*533 _0168_
*534 _0169_
*535 _0170_
*536 _0171_
*537 _0172_
*538 _0173_
*539 _0174_
*540 _0175_
*541 _0176_
*542 _0177_
*543 _0178_
*544 _0179_
*545 _0180_
*546 _0181_
*547 _0182_
*548 _0183_
*549 _0184_
*550 _0185_
*551 _0186_
*552 _0187_
*553 _0188_
*554 _0189_
*555 _0190_
*556 _0191_
*557 _0192_
*558 _0193_
*559 _0194_
*560 _0195_
*561 _0196_
*562 _0197_
*563 _0198_
*564 _0199_
*565 _0200_
*566 _0201_
*567 _0202_
*568 _0203_
*569 _0204_
*570 _0205_
*571 _0206_
*572 _0207_
*573 _0208_
*574 _0209_
*575 _0210_
*576 _0211_
*577 _0212_
*578 _0213_
*579 _0214_
*580 _0215_
*581 _0216_
*582 _0217_
*583 _0218_
*584 _0219_
*585 _0220_
*586 _0221_
*587 _0222_
*588 _0223_
*589 _0224_
*590 _0225_
*591 _0226_
*592 _0227_
*593 _0228_
*594 _0229_
*595 _0230_
*596 _0231_
*597 _0232_
*598 _0233_
*599 _0234_
*600 _0235_
*601 _0236_
*602 _0237_
*603 _0238_
*604 _0239_
*605 _0240_
*606 _0241_
*607 _0242_
*608 _0243_
*609 _0244_
*610 _0245_
*611 _0246_
*612 _0247_
*613 _0248_
*614 _0249_
*615 _0250_
*616 _0251_
*617 _0252_
*618 _0253_
*619 _0254_
*620 _0255_
*621 _0256_
*622 _0257_
*623 _0258_
*624 _0259_
*625 _0260_
*626 _0261_
*627 _0262_
*628 _0263_
*629 _0264_
*630 _0265_
*631 _0266_
*632 _0267_
*633 _0268_
*634 _0269_
*635 _0270_
*636 _0271_
*637 _0272_
*638 _0273_
*639 _0274_
*640 _0275_
*641 _0276_
*642 _0277_
*643 _0278_
*644 _0279_
*645 _0280_
*646 _0281_
*647 _0282_
*648 _0283_
*649 _0284_
*650 _0285_
*651 _0286_
*652 _0287_
*653 _0288_
*654 _0289_
*655 _0290_
*656 _0291_
*657 _0292_
*658 _0293_
*659 _0294_
*660 _0295_
*661 _0296_
*662 _0297_
*663 _0298_
*664 _0299_
*665 _0300_
*666 _0301_
*667 _0302_
*668 _0303_
*669 _0304_
*670 _0305_
*671 _0306_
*672 _0307_
*673 _0308_
*674 _0309_
*675 _0310_
*676 _0311_
*677 _0312_
*678 _0313_
*679 _0314_
*680 _0315_
*681 _0316_
*682 _0317_
*683 _0318_
*684 _0319_
*685 _0320_
*686 _0321_
*687 _0322_
*688 _0323_
*689 _0324_
*690 _0325_
*691 _0326_
*692 _0327_
*693 _0328_
*694 _0329_
*695 _0330_
*696 _0331_
*697 _0332_
*698 _0333_
*699 _0334_
*700 _0335_
*701 _0336_
*702 _0337_
*703 _0338_
*704 _0339_
*705 _0340_
*706 _0341_
*707 _0342_
*708 _0343_
*709 _0344_
*710 _0345_
*711 _0346_
*712 _0347_
*713 _0348_
*714 _0349_
*715 _0350_
*716 _0351_
*717 _0352_
*718 _0353_
*719 _0354_
*720 _0355_
*721 _0356_
*722 _0357_
*723 _0358_
*724 _0359_
*725 _0360_
*726 _0361_
*727 _0362_
*728 _0363_
*729 _0364_
*730 _0365_
*731 _0366_
*732 _0367_
*733 _0368_
*734 _0369_
*735 _0370_
*736 _0371_
*737 _0372_
*738 _0373_
*739 _0374_
*740 _0375_
*741 _0376_
*742 _0377_
*743 _0378_
*744 _0379_
*745 _0380_
*746 _0381_
*747 _0382_
*748 _0383_
*749 _0384_
*750 _0385_
*751 _0386_
*752 _0387_
*753 _0388_
*754 _0389_
*755 _0390_
*756 _0391_
*757 _0392_
*758 _0393_
*759 _0394_
*760 _0395_
*761 _0396_
*762 _0397_
*763 _0398_
*764 _0399_
*765 _0400_
*766 _0401_
*767 _0402_
*768 _0403_
*769 _0404_
*770 _0405_
*771 _0406_
*772 _0407_
*773 _0408_
*774 _0409_
*775 _0410_
*776 _0411_
*777 _0412_
*778 _0413_
*779 _0414_
*780 _0415_
*781 _0416_
*782 _0417_
*783 _0418_
*784 _0419_
*785 _0420_
*786 _0421_
*787 _0422_
*788 _0423_
*789 _0424_
*790 _0425_
*791 _0426_
*792 _0427_
*793 _0428_
*794 _0429_
*795 _0430_
*796 _0431_
*797 _0432_
*798 _0433_
*799 _0434_
*800 _0435_
*801 _0436_
*802 _0437_
*803 _0438_
*804 _0439_
*805 _0440_
*806 _0441_
*807 _0442_
*808 _0443_
*809 _0444_
*810 _0445_
*811 _0446_
*812 _0447_
*813 _0448_
*814 _0449_
*815 _0450_
*816 _0451_
*817 _0452_
*818 _0453_
*819 _0454_
*820 _0455_
*821 _0456_
*822 _0457_
*823 _0458_
*824 _0459_
*825 _0460_
*826 _0461_
*827 _0462_
*828 _0463_
*829 _0464_
*830 _0465_
*831 _0466_
*832 _0467_
*833 _0468_
*834 _0469_
*835 _0470_
*836 _0471_
*837 _0472_
*838 _0473_
*839 _0474_
*840 _0475_
*841 _0476_
*842 _0477_
*843 _0478_
*844 _0479_
*845 _0480_
*846 _0481_
*847 _0482_
*848 _0483_
*849 _0484_
*850 _0485_
*851 _0486_
*852 _0487_
*853 _0488_
*854 _0489_
*855 _0490_
*856 _0491_
*857 _0492_
*858 _0493_
*859 _0494_
*860 _0495_
*861 _0496_
*862 _0497_
*863 _0498_
*864 _0499_
*865 _0500_
*866 _0501_
*867 _0502_
*868 _0503_
*869 _0504_
*870 _0505_
*871 _0506_
*872 _0507_
*873 _0508_
*874 _0509_
*875 _0510_
*876 _0511_
*877 _0512_
*878 _0513_
*879 _0514_
*880 _0515_
*881 _0516_
*882 _0517_
*883 _0518_
*884 _0519_
*885 _0520_
*886 _0521_
*887 _0522_
*888 _0523_
*889 _0524_
*890 _0525_
*891 _0526_
*892 _0527_
*893 _0528_
*894 _0529_
*895 _0530_
*896 _0531_
*897 _0532_
*898 _0533_
*899 _0534_
*900 _0535_
*901 _0536_
*902 _0537_
*903 _0538_
*904 _0539_
*905 _0540_
*906 _0541_
*907 _0542_
*908 _0543_
*909 _0544_
*910 _0545_
*911 _0546_
*912 _0547_
*913 _0548_
*914 _0549_
*915 _0550_
*916 _0551_
*917 _0552_
*918 _0553_
*919 _0554_
*920 _0555_
*921 _0556_
*922 _0557_
*923 _0558_
*924 _0559_
*925 _0560_
*926 _0561_
*927 _0562_
*928 _0563_
*929 _0564_
*930 _0565_
*931 _0566_
*932 _0567_
*933 _0568_
*934 _0569_
*935 _0570_
*936 _0571_
*937 _0572_
*938 _0573_
*939 _0574_
*940 _0575_
*941 _0576_
*942 _0577_
*943 _0578_
*944 _0579_
*945 _0580_
*946 _0581_
*947 _0582_
*948 _0583_
*949 _0584_
*950 _0585_
*951 _0586_
*952 _0587_
*953 _0588_
*954 _0589_
*955 _0590_
*956 _0591_
*957 _0592_
*958 _0593_
*959 _0594_
*960 _0595_
*961 _0596_
*962 _0597_
*963 _0598_
*964 _0599_
*965 _0600_
*966 _0601_
*967 _0602_
*968 _0603_
*969 _0604_
*970 _0605_
*971 _0606_
*972 _0607_
*973 _0608_
*974 _0609_
*975 _0610_
*976 _0611_
*977 _0612_
*978 _0613_
*979 _0614_
*980 _0615_
*981 _0616_
*982 _0617_
*983 _0618_
*984 _0619_
*985 _0620_
*986 _0621_
*987 _0622_
*988 _0623_
*989 _0624_
*990 _0625_
*991 _0626_
*992 _0627_
*993 _0628_
*994 _0629_
*995 _0630_
*996 _0631_
*997 _0632_
*998 _0633_
*999 _0634_
*1000 _0635_
*1001 _0636_
*1002 _0637_
*1003 _0638_
*1004 _0639_
*1005 _0640_
*1006 _0641_
*1007 _0642_
*1008 _0643_
*1009 _0644_
*1010 _0645_
*1011 _0646_
*1012 _0647_
*1013 _0648_
*1014 _0649_
*1015 _0650_
*1016 _0651_
*1017 _0652_
*1018 _0653_
*1019 _0654_
*1020 _0655_
*1021 _0656_
*1022 _0657_
*1023 _0658_
*1024 _0659_
*1025 _0660_
*1026 _0661_
*1027 _0662_
*1028 clknet_0_clk
*1029 clknet_3_0__leaf_clk
*1030 clknet_3_1__leaf_clk
*1031 clknet_3_2__leaf_clk
*1032 clknet_3_3__leaf_clk
*1033 clknet_3_4__leaf_clk
*1034 clknet_3_5__leaf_clk
*1035 clknet_3_6__leaf_clk
*1036 clknet_3_7__leaf_clk
*1037 gpio\[16\]
*1038 gpio\[17\]
*1039 gpio\[18\]
*1040 gpio\[19\]
*1041 gpio\[20\]
*1042 gpio\[21\]
*1043 gpio\[22\]
*1044 gpio\[23\]
*1045 gpio\[24\]
*1046 gpio\[25\]
*1047 gpio\[26\]
*1048 gpio\[27\]
*1049 gpio\[28\]
*1050 gpio\[29\]
*1051 gpio\[30\]
*1052 gpio\[31\]
*1053 iomem_rdata\[0\]
*1054 iomem_rdata\[10\]
*1055 iomem_rdata\[11\]
*1056 iomem_rdata\[12\]
*1057 iomem_rdata\[13\]
*1058 iomem_rdata\[14\]
*1059 iomem_rdata\[15\]
*1060 iomem_rdata\[16\]
*1061 iomem_rdata\[17\]
*1062 iomem_rdata\[18\]
*1063 iomem_rdata\[19\]
*1064 iomem_rdata\[1\]
*1065 iomem_rdata\[20\]
*1066 iomem_rdata\[21\]
*1067 iomem_rdata\[22\]
*1068 iomem_rdata\[23\]
*1069 iomem_rdata\[24\]
*1070 iomem_rdata\[25\]
*1071 iomem_rdata\[26\]
*1072 iomem_rdata\[27\]
*1073 iomem_rdata\[28\]
*1074 iomem_rdata\[29\]
*1075 iomem_rdata\[2\]
*1076 iomem_rdata\[30\]
*1077 iomem_rdata\[31\]
*1078 iomem_rdata\[3\]
*1079 iomem_rdata\[4\]
*1080 iomem_rdata\[5\]
*1081 iomem_rdata\[6\]
*1082 iomem_rdata\[7\]
*1083 iomem_rdata\[8\]
*1084 iomem_rdata\[9\]
*1085 iomem_ready
*1086 net1
*1087 net10
*1088 net100
*1089 net101
*1090 net102
*1091 net103
*1092 net104
*1093 net105
*1094 net106
*1095 net107
*1096 net108
*1097 net109
*1098 net11
*1099 net110
*1100 net111
*1101 net112
*1102 net113
*1103 net114
*1104 net115
*1105 net116
*1106 net117
*1107 net118
*1108 net119
*1109 net12
*1110 net120
*1111 net121
*1112 net122
*1113 net123
*1114 net124
*1115 net125
*1116 net126
*1117 net127
*1118 net128
*1119 net129
*1120 net13
*1121 net130
*1122 net131
*1123 net132
*1124 net133
*1125 net134
*1126 net135
*1127 net136
*1128 net137
*1129 net138
*1130 net139
*1131 net14
*1132 net140
*1133 net141
*1134 net142
*1135 net143
*1136 net144
*1137 net145
*1138 net146
*1139 net147
*1140 net148
*1141 net149
*1142 net15
*1143 net150
*1144 net151
*1145 net152
*1146 net153
*1147 net154
*1148 net155
*1149 net156
*1150 net157
*1151 net158
*1152 net159
*1153 net16
*1154 net160
*1155 net161
*1156 net162
*1157 net163
*1158 net164
*1159 net165
*1160 net166
*1161 net167
*1162 net168
*1163 net169
*1164 net17
*1165 net170
*1166 net171
*1167 net172
*1168 net173
*1169 net174
*1170 net175
*1171 net176
*1172 net177
*1173 net178
*1174 net179
*1175 net18
*1176 net180
*1177 net181
*1178 net182
*1179 net183
*1180 net184
*1181 net185
*1182 net186
*1183 net187
*1184 net188
*1185 net189
*1186 net19
*1187 net190
*1188 net191
*1189 net192
*1190 net193
*1191 net194
*1192 net195
*1193 net196
*1194 net197
*1195 net198
*1196 net199
*1197 net2
*1198 net20
*1199 net200
*1200 net201
*1201 net202
*1202 net203
*1203 net204
*1204 net205
*1205 net206
*1206 net207
*1207 net208
*1208 net209
*1209 net21
*1210 net210
*1211 net211
*1212 net212
*1213 net213
*1214 net214
*1215 net215
*1216 net216
*1217 net217
*1218 net218
*1219 net219
*1220 net22
*1221 net220
*1222 net221
*1223 net222
*1224 net223
*1225 net224
*1226 net225
*1227 net226
*1228 net227
*1229 net228
*1230 net229
*1231 net23
*1232 net230
*1233 net231
*1234 net232
*1235 net233
*1236 net234
*1237 net235
*1238 net236
*1239 net237
*1240 net238
*1241 net239
*1242 net24
*1243 net240
*1244 net241
*1245 net242
*1246 net243
*1247 net244
*1248 net245
*1249 net246
*1250 net247
*1251 net248
*1252 net249
*1253 net25
*1254 net250
*1255 net251
*1256 net252
*1257 net253
*1258 net254
*1259 net255
*1260 net256
*1261 net257
*1262 net258
*1263 net259
*1264 net26
*1265 net260
*1266 net261
*1267 net262
*1268 net263
*1269 net264
*1270 net265
*1271 net266
*1272 net267
*1273 net268
*1274 net269
*1275 net27
*1276 net270
*1277 net271
*1278 net272
*1279 net273
*1280 net274
*1281 net275
*1282 net276
*1283 net277
*1284 net278
*1285 net279
*1286 net28
*1287 net280
*1288 net281
*1289 net282
*1290 net283
*1291 net284
*1292 net285
*1293 net286
*1294 net287
*1295 net288
*1296 net289
*1297 net29
*1298 net290
*1299 net291
*1300 net292
*1301 net293
*1302 net294
*1303 net295
*1304 net296
*1305 net297
*1306 net298
*1307 net299
*1308 net3
*1309 net30
*1310 net300
*1311 net301
*1312 net302
*1313 net303
*1314 net304
*1315 net305
*1316 net306
*1317 net307
*1318 net308
*1319 net309
*1320 net31
*1321 net310
*1322 net311
*1323 net312
*1324 net313
*1325 net314
*1326 net315
*1327 net316
*1328 net317
*1329 net318
*1330 net319
*1331 net32
*1332 net320
*1333 net321
*1334 net322
*1335 net323
*1336 net324
*1337 net325
*1338 net326
*1339 net327
*1340 net328
*1341 net329
*1342 net33
*1343 net330
*1344 net331
*1345 net332
*1346 net333
*1347 net334
*1348 net335
*1349 net336
*1350 net337
*1351 net338
*1352 net339
*1353 net34
*1354 net340
*1355 net341
*1356 net342
*1357 net35
*1358 net36
*1359 net37
*1360 net38
*1361 net39
*1362 net4
*1363 net40
*1364 net41
*1365 net42
*1366 net43
*1367 net44
*1368 net45
*1369 net46
*1370 net47
*1371 net48
*1372 net49
*1373 net5
*1374 net50
*1375 net51
*1376 net52
*1377 net53
*1378 net54
*1379 net55
*1380 net56
*1381 net57
*1382 net58
*1383 net59
*1384 net6
*1385 net60
*1386 net61
*1387 net62
*1388 net63
*1389 net64
*1390 net65
*1391 net66
*1392 net67
*1393 net68
*1394 net69
*1395 net7
*1396 net70
*1397 net71
*1398 net72
*1399 net73
*1400 net74
*1401 net75
*1402 net76
*1403 net77
*1404 net78
*1405 net79
*1406 net8
*1407 net80
*1408 net81
*1409 net82
*1410 net83
*1411 net84
*1412 net85
*1413 net86
*1414 net87
*1415 net88
*1416 net89
*1417 net9
*1418 net90
*1419 net91
*1420 net92
*1421 net93
*1422 net94
*1423 net95
*1424 net96
*1425 net97
*1426 net98
*1427 net99
*1428 ram_ready
*1429 ANTENNA_1
*1430 ANTENNA__0674__I
*1431 ANTENNA__0678__I
*1432 ANTENNA__0681__A2
*1433 ANTENNA__0689__A1
*1434 ANTENNA__0689__A3
*1435 ANTENNA__0690__A1
*1436 ANTENNA__0690__B
*1437 ANTENNA__0694__A2
*1438 ANTENNA__0696__I
*1439 ANTENNA__0697__I
*1440 ANTENNA__0699__I
*1441 ANTENNA__0700__I
*1442 ANTENNA__0701__I
*1443 ANTENNA__0702__A1
*1444 ANTENNA__0702__A2
*1445 ANTENNA__0702__A3
*1446 ANTENNA__0702__A4
*1447 ANTENNA__0707__I
*1448 ANTENNA__0708__I
*1449 ANTENNA__0711__A1
*1450 ANTENNA__0713__A1
*1451 ANTENNA__0715__A1
*1452 ANTENNA__0717__A1
*1453 ANTENNA__0720__I
*1454 ANTENNA__0723__A1
*1455 ANTENNA__0723__A2
*1456 ANTENNA__0725__A1
*1457 ANTENNA__0725__A2
*1458 ANTENNA__0727__A1
*1459 ANTENNA__0727__A2
*1460 ANTENNA__0729__A1
*1461 ANTENNA__0729__A2
*1462 ANTENNA__0736__I
*1463 ANTENNA__0738__A1
*1464 ANTENNA__0740__I
*1465 ANTENNA__0742__A1
*1466 ANTENNA__0743__B
*1467 ANTENNA__0744__I
*1468 ANTENNA__0746__I
*1469 ANTENNA__0747__I
*1470 ANTENNA__0751__A1
*1471 ANTENNA__0756__A2
*1472 ANTENNA__0761__A1
*1473 ANTENNA__0762__B
*1474 ANTENNA__0763__I
*1475 ANTENNA__0765__A1
*1476 ANTENNA__0766__A2
*1477 ANTENNA__0772__A1
*1478 ANTENNA__0773__B
*1479 ANTENNA__0774__I
*1480 ANTENNA__0776__A1
*1481 ANTENNA__0777__A2
*1482 ANTENNA__0781__A1
*1483 ANTENNA__0784__A1
*1484 ANTENNA__0785__B
*1485 ANTENNA__0786__I
*1486 ANTENNA__0788__A1
*1487 ANTENNA__0789__A2
*1488 ANTENNA__0793__A1
*1489 ANTENNA__0797__A1
*1490 ANTENNA__0798__A1
*1491 ANTENNA__0798__B
*1492 ANTENNA__0800__I
*1493 ANTENNA__0803__A1
*1494 ANTENNA__0806__A2
*1495 ANTENNA__0807__A1
*1496 ANTENNA__0809__A1
*1497 ANTENNA__0811__A1
*1498 ANTENNA__0812__A1
*1499 ANTENNA__0813__I
*1500 ANTENNA__0815__A1
*1501 ANTENNA__0816__A2
*1502 ANTENNA__0817__A1
*1503 ANTENNA__0819__I
*1504 ANTENNA__0821__A1
*1505 ANTENNA__0823__A1
*1506 ANTENNA__0824__B
*1507 ANTENNA__0825__I
*1508 ANTENNA__0827__A1
*1509 ANTENNA__0828__A2
*1510 ANTENNA__0829__A1
*1511 ANTENNA__0832__A1
*1512 ANTENNA__0835__A1
*1513 ANTENNA__0836__B
*1514 ANTENNA__0837__I
*1515 ANTENNA__0839__A1
*1516 ANTENNA__0840__A2
*1517 ANTENNA__0844__A1
*1518 ANTENNA__0848__A1
*1519 ANTENNA__0849__B
*1520 ANTENNA__0851__I
*1521 ANTENNA__0854__A1
*1522 ANTENNA__0857__A2
*1523 ANTENNA__0858__A1
*1524 ANTENNA__0860__A1
*1525 ANTENNA__0862__A1
*1526 ANTENNA__0863__B
*1527 ANTENNA__0864__I
*1528 ANTENNA__0866__A1
*1529 ANTENNA__0867__A2
*1530 ANTENNA__0868__A1
*1531 ANTENNA__0871__A1
*1532 ANTENNA__0873__A1
*1533 ANTENNA__0874__B
*1534 ANTENNA__0875__I
*1535 ANTENNA__0877__A1
*1536 ANTENNA__0878__A2
*1537 ANTENNA__0879__A1
*1538 ANTENNA__0881__I
*1539 ANTENNA__0883__A1
*1540 ANTENNA__0885__I
*1541 ANTENNA__0887__A1
*1542 ANTENNA__0888__B
*1543 ANTENNA__0889__I
*1544 ANTENNA__0891__A1
*1545 ANTENNA__0892__A2
*1546 ANTENNA__0893__A1
*1547 ANTENNA__0896__A1
*1548 ANTENNA__0900__A1
*1549 ANTENNA__0901__B
*1550 ANTENNA__0903__I
*1551 ANTENNA__0906__A1
*1552 ANTENNA__0909__A2
*1553 ANTENNA__0910__A1
*1554 ANTENNA__0912__A1
*1555 ANTENNA__0914__A1
*1556 ANTENNA__0915__B
*1557 ANTENNA__0916__I
*1558 ANTENNA__0918__A1
*1559 ANTENNA__0919__A2
*1560 ANTENNA__0920__A1
*1561 ANTENNA__0923__A1
*1562 ANTENNA__0925__A1
*1563 ANTENNA__0926__B
*1564 ANTENNA__0927__I
*1565 ANTENNA__0929__A1
*1566 ANTENNA__0930__A2
*1567 ANTENNA__0931__A1
*1568 ANTENNA__0934__A1
*1569 ANTENNA__0937__A1
*1570 ANTENNA__0938__B
*1571 ANTENNA__0939__I
*1572 ANTENNA__0941__A1
*1573 ANTENNA__0942__A2
*1574 ANTENNA__0947__A1
*1575 ANTENNA__0948__I
*1576 ANTENNA__0951__I
*1577 ANTENNA__0953__A1
*1578 ANTENNA__0955__I
*1579 ANTENNA__0957__I
*1580 ANTENNA__0961__A1
*1581 ANTENNA__0966__A2
*1582 ANTENNA__0969__A1
*1583 ANTENNA__0971__A1
*1584 ANTENNA__0973__I
*1585 ANTENNA__0975__A1
*1586 ANTENNA__0976__A2
*1587 ANTENNA__0980__A1
*1588 ANTENNA__0982__A1
*1589 ANTENNA__0984__I
*1590 ANTENNA__0986__A1
*1591 ANTENNA__0987__A2
*1592 ANTENNA__0988__A1
*1593 ANTENNA__0991__A1
*1594 ANTENNA__0994__A1
*1595 ANTENNA__0996__I
*1596 ANTENNA__0998__A1
*1597 ANTENNA__0999__A2
*1598 ANTENNA__1003__A1
*1599 ANTENNA__1007__A1
*1600 ANTENNA__1010__I
*1601 ANTENNA__1013__A1
*1602 ANTENNA__1016__A2
*1603 ANTENNA__1017__A1
*1604 ANTENNA__1019__A1
*1605 ANTENNA__1021__A1
*1606 ANTENNA__1023__I
*1607 ANTENNA__1025__A1
*1608 ANTENNA__1026__A2
*1609 ANTENNA__1027__A1
*1610 ANTENNA__1029__I
*1611 ANTENNA__1030__A1
*1612 ANTENNA__1032__A1
*1613 ANTENNA__1034__I
*1614 ANTENNA__1036__A1
*1615 ANTENNA__1037__A2
*1616 ANTENNA__1038__A1
*1617 ANTENNA__1041__A1
*1618 ANTENNA__1044__A1
*1619 ANTENNA__1046__I
*1620 ANTENNA__1048__A1
*1621 ANTENNA__1049__A2
*1622 ANTENNA__1050__A1
*1623 ANTENNA__1053__A1
*1624 ANTENNA__1057__A1
*1625 ANTENNA__1060__I
*1626 ANTENNA__1063__A1
*1627 ANTENNA__1066__A2
*1628 ANTENNA__1069__A1
*1629 ANTENNA__1071__A1
*1630 ANTENNA__1073__I
*1631 ANTENNA__1075__A1
*1632 ANTENNA__1076__A2
*1633 ANTENNA__1079__I
*1634 ANTENNA__1080__A1
*1635 ANTENNA__1082__A1
*1636 ANTENNA__1084__I
*1637 ANTENNA__1086__A1
*1638 ANTENNA__1087__A2
*1639 ANTENNA__1090__I
*1640 ANTENNA__1091__A1
*1641 ANTENNA__1093__I
*1642 ANTENNA__1094__A1
*1643 ANTENNA__1096__I
*1644 ANTENNA__1098__A1
*1645 ANTENNA__1099__A2
*1646 ANTENNA__1103__A1
*1647 ANTENNA__1107__A1
*1648 ANTENNA__1110__I
*1649 ANTENNA__1113__A1
*1650 ANTENNA__1116__A2
*1651 ANTENNA__1117__A1
*1652 ANTENNA__1119__A1
*1653 ANTENNA__1121__A1
*1654 ANTENNA__1123__I
*1655 ANTENNA__1125__A1
*1656 ANTENNA__1126__A2
*1657 ANTENNA__1127__A1
*1658 ANTENNA__1129__A1
*1659 ANTENNA__1131__A1
*1660 ANTENNA__1133__I
*1661 ANTENNA__1135__A1
*1662 ANTENNA__1136__A2
*1663 ANTENNA__1137__A1
*1664 ANTENNA__1139__A1
*1665 ANTENNA__1141__A1
*1666 ANTENNA__1143__I
*1667 ANTENNA__1145__A1
*1668 ANTENNA__1146__A2
*1669 ANTENNA__1147__A1
*1670 ANTENNA__1147__B1
*1671 ANTENNA__1148__A1
*1672 ANTENNA__1149__A1
*1673 ANTENNA__1150__A1
*1674 ANTENNA__1151__A1
*1675 ANTENNA__1152__A1
*1676 ANTENNA__1156__A1
*1677 ANTENNA__1160__A1
*1678 ANTENNA__1162__I
*1679 ANTENNA__1163__I
*1680 ANTENNA__1164__A1
*1681 ANTENNA__1167__A1
*1682 ANTENNA__1170__A1
*1683 ANTENNA__1173__A1
*1684 ANTENNA__1178__I
*1685 ANTENNA__1179__A1
*1686 ANTENNA__1182__A1
*1687 ANTENNA__1185__A1
*1688 ANTENNA__1188__A1
*1689 ANTENNA__1190__A1
*1690 ANTENNA__1193__A1
*1691 ANTENNA__1195__I
*1692 ANTENNA__1210__I
*1693 ANTENNA__1211__I
*1694 ANTENNA__1223__A1
*1695 ANTENNA__1226__A1
*1696 ANTENNA__1228__I
*1697 ANTENNA__1243__I
*1698 ANTENNA__1255__A1
*1699 ANTENNA__1260__A1
*1700 ANTENNA__1262__A1
*1701 ANTENNA__1264__A1
*1702 ANTENNA__1266__A1
*1703 ANTENNA__1270__A1
*1704 ANTENNA__1271__A1
*1705 ANTENNA__1272__A1
*1706 ANTENNA__1273__A1
*1707 ANTENNA__1274__A1
*1708 ANTENNA__1275__A1
*1709 ANTENNA__1276__A1
*1710 ANTENNA__1280__A1
*1711 ANTENNA__1281__A1
*1712 ANTENNA__1282__A1
*1713 ANTENNA__1283__A1
*1714 ANTENNA__1284__A1
*1715 ANTENNA__1285__A1
*1716 ANTENNA__1286__A1
*1717 ANTENNA__1287__A1
*1718 ANTENNA__1290__A1
*1719 ANTENNA__1291__A1
*1720 ANTENNA__1292__A1
*1721 ANTENNA__1293__A1
*1722 ANTENNA__1294__A1
*1723 ANTENNA__1295__A1
*1724 ANTENNA__1296__A1
*1725 ANTENNA__1307__A1
*1726 ANTENNA__1313__A1
*1727 ANTENNA__1315__A1
*1728 ANTENNA__1317__A1
*1729 ANTENNA__1319__A1
*1730 ANTENNA__1333__A1
*1731 ANTENNA__1335__A1
*1732 ANTENNA__1337__A1
*1733 ANTENNA__1339__A1
*1734 ANTENNA__1340__S
*1735 ANTENNA__1342__A1
*1736 ANTENNA__1343__I
*1737 ANTENNA__1345__A1
*1738 ANTENNA__1347__I
*1739 ANTENNA__1348__A1
*1740 ANTENNA__1351__A1
*1741 ANTENNA__1354__A1
*1742 ANTENNA__1357__A1
*1743 ANTENNA__1359__I
*1744 ANTENNA__1362__I
*1745 ANTENNA__1363__A1
*1746 ANTENNA__1366__A1
*1747 ANTENNA__1369__A1
*1748 ANTENNA__1372__A1
*1749 ANTENNA__1411__CLK
*1750 ANTENNA__1412__CLK
*1751 ANTENNA__1416__CLK
*1752 ANTENNA__1417__CLK
*1753 ANTENNA__1430__CLK
*1754 ANTENNA__1471__I
*1755 ANTENNA_clkbuf_0_clk_I
*1756 ANTENNA_clkbuf_3_0__f_clk_I
*1757 ANTENNA_clkbuf_3_1__f_clk_I
*1758 ANTENNA_clkbuf_3_2__f_clk_I
*1759 ANTENNA_clkbuf_3_3__f_clk_I
*1760 ANTENNA_clkbuf_3_4__f_clk_I
*1761 ANTENNA_clkbuf_3_5__f_clk_I
*1762 ANTENNA_clkbuf_3_6__f_clk_I
*1763 ANTENNA_clkbuf_3_7__f_clk_I
*1764 ANTENNA_fanout331_I
*1765 ANTENNA_fanout332_I
*1766 ANTENNA_fanout334_I
*1767 ANTENNA_fanout335_I
*1768 ANTENNA_fanout336_I
*1769 ANTENNA_fanout338_I
*1770 ANTENNA_fanout341_I
*1771 ANTENNA_fanout342_I
*1772 ANTENNA_input100_I
*1773 ANTENNA_input101_I
*1774 ANTENNA_input102_I
*1775 ANTENNA_input103_I
*1776 ANTENNA_input104_I
*1777 ANTENNA_input105_I
*1778 ANTENNA_input106_I
*1779 ANTENNA_input107_I