*SPEF "ieee 1481-1999"
*DESIGN "spimemio"
*DATE "11:11:11 Fri 11 11, 1111"
*VENDOR "OpenRCX"
*PROGRAM "Parallel Extraction"
*VERSION "1.0"
*DESIGN_FLOW "NAME_SCOPE LOCAL" "PIN_CAP NONE"
*DIVIDER /
*DELIMITER :
*BUS_DELIMITER []
*T_UNIT 1 NS
*C_UNIT 1 PF
*R_UNIT 1 OHM
*L_UNIT 1 HENRY

*NAME_MAP
*1 addr[0]
*2 addr[10]
*3 addr[11]
*4 addr[12]
*5 addr[13]
*6 addr[14]
*7 addr[15]
*8 addr[16]
*9 addr[17]
*10 addr[18]
*11 addr[19]
*12 addr[1]
*13 addr[20]
*14 addr[21]
*15 addr[22]
*16 addr[23]
*17 addr[2]
*18 addr[3]
*19 addr[4]
*20 addr[5]
*21 addr[6]
*22 addr[7]
*23 addr[8]
*24 addr[9]
*25 cfgreg_di[0]
*26 cfgreg_di[10]
*27 cfgreg_di[11]
*28 cfgreg_di[12]
*29 cfgreg_di[13]
*30 cfgreg_di[14]
*31 cfgreg_di[15]
*32 cfgreg_di[16]
*33 cfgreg_di[17]
*34 cfgreg_di[18]
*35 cfgreg_di[19]
*36 cfgreg_di[1]
*37 cfgreg_di[20]
*38 cfgreg_di[21]
*39 cfgreg_di[22]
*40 cfgreg_di[23]
*41 cfgreg_di[24]
*42 cfgreg_di[25]
*43 cfgreg_di[26]
*44 cfgreg_di[27]
*45 cfgreg_di[28]
*46 cfgreg_di[29]
*47 cfgreg_di[2]
*48 cfgreg_di[30]
*49 cfgreg_di[31]
*50 cfgreg_di[3]
*51 cfgreg_di[4]
*52 cfgreg_di[5]
*53 cfgreg_di[6]
*54 cfgreg_di[7]
*55 cfgreg_di[8]
*56 cfgreg_di[9]
*57 cfgreg_do[0]
*58 cfgreg_do[10]
*59 cfgreg_do[11]
*60 net116
*61 net117
*62 net118
*63 net119
*64 cfgreg_do[16]
*65 cfgreg_do[17]
*66 cfgreg_do[18]
*67 cfgreg_do[19]
*68 cfgreg_do[1]
*69 cfgreg_do[20]
*70 cfgreg_do[21]
*71 cfgreg_do[22]
*72 net120
*73 net121
*74 net122
*75 net123
*76 net124
*77 net125
*78 net126
*79 cfgreg_do[2]
*80 net127
*81 cfgreg_do[31]
*82 cfgreg_do[3]
*83 cfgreg_do[4]
*84 cfgreg_do[5]
*85 net114
*86 net115
*87 cfgreg_do[8]
*88 cfgreg_do[9]
*89 cfgreg_we[0]
*90 cfgreg_we[1]
*91 cfgreg_we[2]
*92 cfgreg_we[3]
*93 clk
*94 flash_in[0]
*95 flash_in[1]
*96 flash_in[2]
*97 flash_in[3]
*98 flash_in[4]
*99 flash_in[5]
*100 net128
*101 net129
*102 flash_oeb[2]
*103 flash_oeb[3]
*104 flash_oeb[4]
*105 flash_oeb[5]
*106 flash_out[0]
*107 flash_out[1]
*108 flash_out[2]
*109 flash_out[3]
*110 flash_out[4]
*111 flash_out[5]
*112 rdata[0]
*113 rdata[10]
*114 rdata[11]
*115 rdata[12]
*116 rdata[13]
*117 rdata[14]
*118 rdata[15]
*119 rdata[16]
*120 rdata[17]
*121 rdata[18]
*122 rdata[19]
*123 rdata[1]
*124 rdata[20]
*125 rdata[21]
*126 rdata[22]
*127 rdata[23]
*128 rdata[24]
*129 rdata[25]
*130 rdata[26]
*131 rdata[27]
*132 rdata[28]
*133 rdata[29]
*134 rdata[2]
*135 rdata[30]
*136 rdata[31]
*137 rdata[3]
*138 rdata[4]
*139 rdata[5]
*140 rdata[6]
*141 rdata[7]
*142 rdata[8]
*143 rdata[9]
*144 ready
*145 resetn
*146 valid
*149 _0000_
*150 _0001_
*151 _0002_
*152 _0003_
*153 _0004_
*154 _0005_
*155 _0006_
*156 _0007_
*157 _0008_
*158 _0009_
*159 _0010_
*160 _0011_
*161 _0012_
*162 _0013_
*163 _0014_
*164 _0015_
*165 _0016_
*166 _0017_
*167 _0018_
*168 _0019_
*169 _0020_
*170 _0021_
*171 _0022_
*172 _0023_
*173 _0024_
*174 _0025_
*175 _0026_
*176 _0027_
*177 _0028_
*178 _0029_
*179 _0030_
*180 _0031_
*181 _0032_
*182 _0033_
*183 _0034_
*184 _0035_
*185 _0036_
*186 _0037_
*187 _0038_
*188 _0039_
*189 _0040_
*190 _0041_
*191 _0042_
*192 _0043_
*193 _0044_
*194 _0045_
*195 _0046_
*196 _0047_
*197 _0048_
*198 _0049_
*199 _0050_
*200 _0051_
*201 _0052_
*202 _0053_
*203 _0054_
*204 _0055_
*205 _0056_
*206 _0057_
*207 _0058_
*208 _0059_
*209 _0060_
*210 _0061_
*211 _0062_
*212 _0063_
*213 _0064_
*214 _0065_
*215 _0066_
*216 _0067_
*217 _0068_
*218 _0069_
*219 _0070_
*220 _0071_
*221 _0072_
*222 _0073_
*223 _0074_
*224 _0075_
*225 _0076_
*226 _0077_
*227 _0078_
*228 _0079_
*229 _0080_
*230 _0081_
*231 _0082_
*232 _0083_
*233 _0084_
*234 _0085_
*235 _0086_
*236 _0087_
*237 _0088_
*238 _0089_
*239 _0090_
*240 _0091_
*241 _0092_
*242 _0093_
*243 _0094_
*244 _0095_
*245 _0096_
*246 _0097_
*247 _0098_
*248 _0099_
*249 _0100_
*250 _0101_
*251 _0102_
*252 _0103_
*253 _0104_
*254 _0105_
*255 _0106_
*256 _0107_
*257 _0108_
*258 _0109_
*259 _0110_
*260 _0111_
*261 _0112_
*262 _0113_
*263 _0114_
*264 _0115_
*265 _0116_
*266 _0117_
*267 _0118_
*268 _0119_
*269 _0120_
*270 _0121_
*271 _0122_
*272 _0123_
*273 _0124_
*274 _0125_
*275 _0126_
*276 _0127_
*277 _0128_
*278 _0129_
*279 _0130_
*280 _0131_
*281 _0132_
*282 _0133_
*283 _0134_
*284 _0135_
*285 _0136_
*286 _0137_
*287 _0138_
*288 _0139_
*289 _0140_
*290 _0141_
*291 _0142_
*292 _0143_
*293 _0144_
*294 _0145_
*295 _0146_
*296 _0147_
*297 _0148_
*298 _0149_
*299 _0150_
*300 _0151_
*301 _0152_
*302 _0153_
*303 _0154_
*304 _0155_
*305 _0156_
*306 _0157_
*307 _0158_
*308 _0159_
*309 _0160_
*310 _0161_
*311 _0162_
*312 _0163_
*313 _0164_
*314 _0165_
*315 _0166_
*316 _0167_
*317 _0168_
*318 _0169_
*319 _0170_
*320 _0171_
*321 _0172_
*322 _0173_
*323 _0174_
*324 _0175_
*325 _0176_
*326 _0177_
*327 _0178_
*328 _0179_
*329 _0180_
*330 _0181_
*331 _0182_
*332 _0183_
*333 _0184_
*334 _0185_
*335 _0186_
*336 _0187_
*337 _0188_
*338 _0189_
*339 _0190_
*340 _0191_
*341 _0192_
*342 _0193_
*343 _0194_
*344 _0195_
*345 _0196_
*346 _0197_
*347 _0198_
*348 _0199_
*349 _0200_
*350 _0201_
*351 _0202_
*352 _0203_
*353 _0204_
*354 _0205_
*355 _0206_
*356 _0207_
*357 _0208_
*358 _0209_
*359 _0210_
*360 _0211_
*361 _0212_
*362 _0213_
*363 _0214_
*364 _0215_
*365 _0216_
*366 _0217_
*367 _0218_
*368 _0219_
*369 _0220_
*370 _0221_
*371 _0222_
*372 _0223_
*373 _0224_
*374 _0225_
*375 _0226_
*376 _0227_
*377 _0228_
*378 _0229_
*379 _0230_
*380 _0231_
*381 _0232_
*382 _0233_
*383 _0234_
*384 _0235_
*385 _0236_
*386 _0237_
*387 _0238_
*388 _0239_
*389 _0240_
*390 _0241_
*391 _0242_
*392 _0243_
*393 _0244_
*394 _0245_
*395 _0246_
*396 _0247_
*397 _0248_
*398 _0249_
*399 _0250_
*400 _0251_
*401 _0252_
*402 _0253_
*403 _0254_
*404 _0255_
*405 _0256_
*406 _0257_
*407 _0258_
*408 _0259_
*409 _0260_
*410 _0261_
*411 _0262_
*412 _0263_
*413 _0264_
*414 _0265_
*415 _0266_
*416 _0267_
*417 _0268_
*418 _0269_
*419 _0270_
*420 _0271_
*421 _0272_
*422 _0273_
*423 _0274_
*424 _0275_
*425 _0276_
*426 _0277_
*427 _0278_
*428 _0279_
*429 _0280_
*430 _0281_
*431 _0282_
*432 _0283_
*433 _0284_
*434 _0285_
*435 _0286_
*436 _0287_
*437 _0288_
*438 _0289_
*439 _0290_
*440 _0291_
*441 _0292_
*442 _0293_
*443 _0294_
*444 _0295_
*445 _0296_
*446 _0297_
*447 _0298_
*448 _0299_
*449 _0300_
*450 _0301_
*451 _0302_
*452 _0303_
*453 _0304_
*454 _0305_
*455 _0306_
*456 _0307_
*457 _0308_
*458 _0309_
*459 _0310_
*460 _0311_
*461 _0312_
*462 _0313_
*463 _0314_
*464 _0315_
*465 _0316_
*466 _0317_
*467 _0318_
*468 _0319_
*469 _0320_
*470 _0321_
*471 _0322_
*472 _0323_
*473 _0324_
*474 _0325_
*475 _0326_
*476 _0327_
*477 _0328_
*478 _0329_
*479 _0330_
*480 _0331_
*481 _0332_
*482 _0333_
*483 _0334_
*484 _0335_
*485 _0336_
*486 _0337_
*487 _0338_
*488 _0339_
*489 _0340_
*490 _0341_
*491 _0342_
*492 _0343_
*493 _0344_
*494 _0345_
*495 _0346_
*496 _0347_
*497 _0348_
*498 _0349_
*499 _0350_
*500 _0351_
*501 _0352_
*502 _0353_
*503 _0354_
*504 _0355_
*505 _0356_
*506 _0357_
*507 _0358_
*508 _0359_
*509 _0360_
*510 _0361_
*511 _0362_
*512 _0363_
*513 _0364_
*514 _0365_
*515 _0366_
*516 _0367_
*517 _0368_
*518 _0369_
*519 _0370_
*520 _0371_
*521 _0372_
*522 _0373_
*523 _0374_
*524 _0375_
*525 _0376_
*526 _0377_
*527 _0378_
*528 _0379_
*529 _0380_
*530 _0381_
*531 _0382_
*532 _0383_
*533 _0384_
*534 _0385_
*535 _0386_
*536 _0387_
*537 _0388_
*538 _0389_
*539 _0390_
*540 _0391_
*541 _0392_
*542 _0393_
*543 _0394_
*544 _0395_
*545 _0396_
*546 _0397_
*547 _0398_
*548 _0399_
*549 _0400_
*550 _0401_
*551 _0402_
*552 _0403_
*553 _0404_
*554 _0405_
*555 _0406_
*556 _0407_
*557 _0408_
*558 _0409_
*559 _0410_
*560 _0411_
*561 _0412_
*562 _0413_
*563 _0414_
*564 _0415_
*565 _0416_
*566 _0417_
*567 _0418_
*568 _0419_
*569 _0420_
*570 _0421_
*571 _0422_
*572 _0423_
*573 _0424_
*574 _0425_
*575 _0426_
*576 _0427_
*577 _0428_
*578 _0429_
*579 _0430_
*580 _0431_
*581 _0432_
*582 _0433_
*583 _0434_
*584 _0435_
*585 _0436_
*586 _0437_
*587 _0438_
*588 _0439_
*589 _0440_
*590 _0441_
*591 _0442_
*592 _0443_
*593 _0444_
*594 _0445_
*595 _0446_
*596 _0447_
*597 _0448_
*598 _0449_
*599 _0450_
*600 _0451_
*601 _0452_
*602 _0453_
*603 _0454_
*604 _0455_
*605 _0456_
*606 _0457_
*607 _0458_
*608 _0459_
*609 _0460_
*610 _0461_
*611 _0462_
*612 _0463_
*613 _0464_
*614 _0465_
*615 _0466_
*616 _0467_
*617 _0468_
*618 _0469_
*619 _0470_
*620 _0471_
*621 _0472_
*622 _0473_
*623 _0474_
*624 _0475_
*625 _0476_
*626 _0477_
*627 _0478_
*628 _0479_
*629 _0480_
*630 _0481_
*631 _0482_
*632 _0483_
*633 _0484_
*634 _0485_
*635 _0486_
*636 _0487_
*637 _0488_
*638 _0489_
*639 _0490_
*640 _0491_
*641 _0492_
*642 _0493_
*643 _0494_
*644 _0495_
*645 _0496_
*646 _0497_
*647 _0498_
*648 _0499_
*649 _0500_
*650 _0501_
*651 _0502_
*652 _0503_
*653 _0504_
*654 _0505_
*655 _0506_
*656 _0507_
*657 _0508_
*658 _0509_
*659 _0510_
*660 _0511_
*661 _0512_
*662 _0513_
*663 _0514_
*664 _0515_
*665 _0516_
*666 _0517_
*667 _0518_
*668 _0519_
*669 _0520_
*670 _0521_
*671 _0522_
*672 _0523_
*673 _0524_
*674 _0525_
*675 _0526_
*676 _0527_
*677 _0528_
*678 _0529_
*679 _0530_
*680 _0531_
*681 _0532_
*682 _0533_
*683 _0534_
*684 _0535_
*685 _0536_
*686 _0537_
*687 _0538_
*688 _0539_
*689 _0540_
*690 _0541_
*691 _0542_
*692 _0543_
*693 _0544_
*694 _0545_
*695 _0546_
*696 _0547_
*697 _0548_
*698 _0549_
*699 _0550_
*700 _0551_
*701 _0552_
*702 _0553_
*703 _0554_
*704 _0555_
*705 _0556_
*706 _0557_
*707 _0558_
*708 _0559_
*709 _0560_
*710 _0561_
*711 _0562_
*712 _0563_
*713 _0564_
*714 _0565_
*715 _0566_
*716 _0567_
*717 _0568_
*718 _0569_
*719 _0570_
*720 _0571_
*721 _0572_
*722 _0573_
*723 _0574_
*724 _0575_
*725 _0576_
*726 _0577_
*727 _0578_
*728 _0579_
*729 _0580_
*730 _0581_
*731 _0582_
*732 _0583_
*733 _0584_
*734 _0585_
*735 _0586_
*736 _0587_
*737 _0588_
*738 _0589_
*739 _0590_
*740 _0591_
*741 _0592_
*742 _0593_
*743 _0594_
*744 _0595_
*745 _0596_
*746 _0597_
*747 _0598_
*748 _0599_
*749 _0600_
*750 _0601_
*751 _0602_
*752 _0603_
*753 _0604_
*754 _0605_
*755 _0606_
*756 _0607_
*757 _0608_
*758 _0609_
*759 _0610_
*760 _0611_
*761 _0612_
*762 _0613_
*763 _0614_
*764 _0615_
*765 _0616_
*766 _0617_
*767 _0618_
*768 _0619_
*769 _0620_
*770 _0621_
*771 _0622_
*772 _0623_
*773 _0624_
*774 _0625_
*775 _0626_
*776 _0627_
*777 _0628_
*778 _0629_
*779 _0630_
*780 _0631_
*781 _0632_
*782 _0633_
*783 _0634_
*784 _0635_
*785 _0636_
*786 _0637_
*787 _0638_
*788 _0639_
*789 _0640_
*790 _0641_
*791 _0642_
*792 _0643_
*793 _0644_
*794 _0645_
*795 _0646_
*796 _0647_
*797 _0648_
*798 _0649_
*799 _0650_
*800 _0651_
*801 _0652_
*802 _0653_
*803 _0654_
*804 _0655_
*805 _0656_
*806 _0657_
*807 _0658_
*808 _0659_
*809 _0660_
*810 _0661_
*811 _0662_
*812 _0663_
*813 _0664_
*814 _0665_
*815 _0666_
*816 _0667_
*817 _0668_
*818 _0669_
*819 _0670_
*820 _0671_
*821 _0672_
*822 _0673_
*823 _0674_
*824 _0675_
*825 _0676_
*826 _0677_
*827 _0678_
*828 _0679_
*829 _0680_
*830 _0681_
*831 _0682_
*832 _0683_
*833 _0684_
*834 _0685_
*835 _0686_
*836 _0687_
*837 _0688_
*838 _0689_
*839 _0690_
*840 _0691_
*841 _0692_
*842 _0693_
*843 _0694_
*844 _0695_
*845 _0696_
*846 _0697_
*847 _0698_
*848 _0699_
*849 _0700_
*850 _0701_
*851 _0702_
*852 _0703_
*853 _0704_
*854 _0705_
*855 _0706_
*856 _0707_
*857 _0708_
*858 _0709_
*859 _0710_
*860 _0711_
*861 _0712_
*862 _0713_
*863 _0714_
*864 _0715_
*865 _0716_
*866 _0717_
*867 _0718_
*868 _0719_
*869 _0720_
*870 _0721_
*871 _0722_
*872 _0723_
*873 _0724_
*874 _0725_
*875 _0726_
*876 _0727_
*877 _0728_
*878 _0729_
*879 _0730_
*880 _0731_
*881 _0732_
*882 _0733_
*883 _0734_
*884 _0735_
*885 _0736_
*886 _0737_
*887 _0738_
*888 _0739_
*889 _0740_
*890 _0741_
*891 _0742_
*892 _0743_
*893 _0744_
*894 _0745_
*895 _0746_
*896 _0747_
*897 _0748_
*898 _0749_
*899 _0750_
*900 _0751_
*901 _0752_
*902 _0753_
*903 _0754_
*904 _0755_
*905 _0756_
*906 _0757_
*907 _0758_
*908 _0759_
*909 _0760_
*910 _0761_
*911 _0762_
*912 _0763_
*913 _0764_
*914 _0765_
*915 _0766_
*916 _0767_
*917 _0768_
*918 _0769_
*919 _0770_
*920 _0771_
*921 _0772_
*922 _0773_
*923 _0774_
*924 _0775_
*925 _0776_
*926 _0777_
*927 _0778_
*928 _0779_
*929 _0780_
*930 _0781_
*931 _0782_
*932 _0783_
*933 _0784_
*934 _0785_
*935 _0786_
*936 _0787_
*937 _0788_
*938 _0789_
*939 _0790_
*940 _0791_
*941 _0792_
*942 _0793_
*943 _0794_
*944 _0795_
*945 _0796_
*946 _0797_
*947 _0798_
*948 _0799_
*949 _0800_
*950 _0801_
*951 _0802_
*952 _0803_
*953 _0804_
*954 _0805_
*955 _0806_
*956 _0807_
*957 _0808_
*958 _0809_
*959 _0810_
*960 _0811_
*961 _0812_
*962 _0813_
*963 _0814_
*964 _0815_
*965 _0816_
*966 _0817_
*967 _0818_
*968 _0819_
*969 _0820_
*970 _0821_
*971 _0822_
*972 _0823_
*973 _0824_
*974 _0825_
*975 _0826_
*976 _0827_
*977 _0828_
*978 _0829_
*979 _0830_
*980 _0831_
*981 _0832_
*982 _0833_
*983 _0834_
*984 _0835_
*985 _0836_
*986 _0837_
*987 _0838_
*988 _0839_
*989 _0840_
*990 _0841_
*991 _0842_
*992 _0843_
*993 _0844_
*994 _0845_
*995 _0846_
*996 _0847_
*997 _0848_
*998 _0849_
*999 _0850_
*1000 _0851_
*1001 _0852_
*1002 _0853_
*1003 _0854_
*1004 _0855_
*1005 _0856_
*1006 _0857_
*1007 _0858_
*1008 _0859_
*1009 _0860_
*1010 _0861_
*1011 _0862_
*1012 _0863_
*1013 _0864_
*1014 _0865_
*1015 _0866_
*1016 _0867_
*1017 _0868_
*1018 _0869_
*1019 _0870_
*1020 _0871_
*1021 _0872_
*1022 _0873_
*1023 _0874_
*1024 _0875_
*1025 _0876_
*1026 _0877_
*1027 _0878_
*1028 _0879_
*1029 _0880_
*1030 _0881_
*1031 _0882_
*1032 _0883_
*1033 _0884_
*1034 _0885_
*1035 _0886_
*1036 _0887_
*1037 _0888_
*1038 _0889_
*1039 _0890_
*1040 _0891_
*1041 _0892_
*1042 _0893_
*1043 _0894_
*1044 _0895_
*1045 _0896_
*1046 _0897_
*1047 _0898_
*1048 _0899_
*1049 _0900_
*1050 _0901_
*1051 _0902_
*1052 _0903_
*1053 _0904_
*1054 _0905_
*1055 _0906_
*1056 _0907_
*1057 _0908_
*1058 _0909_
*1059 _0910_
*1060 _0911_
*1061 _0912_
*1062 _0913_
*1063 _0914_
*1064 _0915_
*1065 _0916_
*1066 _0917_
*1067 _0918_
*1068 _0919_
*1069 _0920_
*1070 _0921_
*1071 _0922_
*1072 _0923_
*1073 _0924_
*1074 _0925_
*1075 _0926_
*1076 _0927_
*1077 _0928_
*1078 _0929_
*1079 _0930_
*1080 _0931_
*1081 _0932_
*1082 _0933_
*1083 _0934_
*1084 _0935_
*1085 _0936_
*1086 _0937_
*1087 _0938_
*1088 _0939_
*1089 _0940_
*1090 _0941_
*1091 _0942_
*1092 _0943_
*1093 _0944_
*1094 _0945_
*1095 _0946_
*1096 _0947_
*1097 _0948_
*1098 _0949_
*1099 _0950_
*1100 _0951_
*1101 _0952_
*1102 _0953_
*1103 _0954_
*1104 _0955_
*1105 _0956_
*1106 _0957_
*1107 _0958_
*1108 _0959_
*1109 _0960_
*1110 _0961_
*1111 _0962_
*1112 _0963_
*1113 _0964_
*1114 _0965_
*1115 _0966_
*1116 _0967_
*1117 _0968_
*1118 _0969_
*1119 _0970_
*1120 _0971_
*1121 _0972_
*1122 _0973_
*1123 _0974_
*1124 _0975_
*1125 _0976_
*1126 _0977_
*1127 _0978_
*1128 _0979_
*1129 _0980_
*1130 _0981_
*1131 _0982_
*1132 _0983_
*1133 _0984_
*1134 _0985_
*1135 _0986_
*1136 _0987_
*1137 _0988_
*1138 _0989_
*1139 _0990_
*1140 _0991_
*1141 _0992_
*1142 _0993_
*1143 _0994_
*1144 _0995_
*1145 _0996_
*1146 _0997_
*1147 _0998_
*1148 _0999_
*1149 _1000_
*1150 _1001_
*1151 _1002_
*1152 _1003_
*1153 _1004_
*1154 _1005_
*1155 _1006_
*1156 _1007_
*1157 _1008_
*1158 _1009_
*1159 _1010_
*1160 _1011_
*1161 _1012_
*1162 _1013_
*1163 _1014_
*1164 _1015_
*1165 _1016_
*1166 _1017_
*1167 _1018_
*1168 _1019_
*1169 _1020_
*1170 _1021_
*1171 _1022_
*1172 _1023_
*1173 _1024_
*1174 _1025_
*1175 _1026_
*1176 _1027_
*1177 _1028_
*1178 _1029_
*1179 _1030_
*1180 buffer\[0\]
*1181 buffer\[10\]
*1182 buffer\[11\]
*1183 buffer\[12\]
*1184 buffer\[13\]
*1185 buffer\[14\]
*1186 buffer\[15\]
*1187 buffer\[16\]
*1188 buffer\[17\]
*1189 buffer\[18\]
*1190 buffer\[19\]
*1191 buffer\[1\]
*1192 buffer\[20\]
*1193 buffer\[21\]
*1194 buffer\[22\]
*1195 buffer\[23\]
*1196 buffer\[2\]
*1197 buffer\[3\]
*1198 buffer\[4\]
*1199 buffer\[5\]
*1200 buffer\[6\]
*1201 buffer\[7\]
*1202 buffer\[8\]
*1203 buffer\[9\]
*1204 clknet_0_clk
*1205 clknet_4_0_0_clk
*1206 clknet_4_10_0_clk
*1207 clknet_4_11_0_clk
*1208 clknet_4_12_0_clk
*1209 clknet_4_13_0_clk
*1210 clknet_4_14_0_clk
*1211 clknet_4_15_0_clk
*1212 clknet_4_1_0_clk
*1213 clknet_4_2_0_clk
*1214 clknet_4_3_0_clk
*1215 clknet_4_4_0_clk
*1216 clknet_4_5_0_clk
*1217 clknet_4_6_0_clk
*1218 clknet_4_7_0_clk
*1219 clknet_4_8_0_clk
*1220 clknet_4_9_0_clk
*1221 config_clk
*1222 config_csb
*1223 config_do\[0\]
*1224 config_do\[1\]
*1225 config_do\[2\]
*1226 config_do\[3\]
*1227 config_oe\[0\]
*1228 config_oe\[1\]
*1229 config_oe\[2\]
*1230 config_oe\[3\]
*1231 din_ddr
*1232 net1
*1233 net10
*1234 net100
*1235 net101
*1236 net102
*1237 net103
*1238 net104
*1239 net105
*1240 net106
*1241 net107
*1242 net108
*1243 net109
*1244 net11
*1245 net110
*1246 net111
*1247 net112
*1248 net113
*1249 net12
*1250 net13
*1251 net130
*1252 net131
*1253 net14
*1254 net15
*1255 net16
*1256 net17
*1257 net18
*1258 net19
*1259 net2
*1260 net20
*1261 net21
*1262 net22
*1263 net23
*1264 net24
*1265 net25
*1266 net26
*1267 net27
*1268 net28
*1269 net29
*1270 net3
*1271 net30
*1272 net31
*1273 net32
*1274 net33
*1275 net34
*1276 net35
*1277 net36
*1278 net37
*1279 net38
*1280 net39
*1281 net4
*1282 net40
*1283 net41
*1284 net42
*1285 net43
*1286 net44
*1287 net45
*1288 net46
*1289 net47
*1290 net48
*1291 net49
*1292 net5
*1293 net50
*1294 net51
*1295 net52
*1296 net53
*1297 net54
*1298 net55
*1299 net56
*1300 net57
*1301 net58
*1302 net59
*1303 net6
*1304 net60
*1305 net61
*1306 net62
*1307 net63
*1308 net64
*1309 net65
*1310 net66
*1311 net67
*1312 net68
*1313 net69
*1314 net7
*1315 net70
*1316 net71
*1317 net72
*1318 net73
*1319 net74
*1320 net75
*1321 net76
*1322 net77
*1323 net78
*1324 net79
*1325 net8
*1326 net80
*1327 net81
*1328 net82
*1329 net83
*1330 net84
*1331 net85
*1332 net86
*1333 net87
*1334 net88
*1335 net89
*1336 net9
*1337 net90
*1338 net91
*1339 net92
*1340 net93
*1341 net94
*1342 net95
*1343 net96
*1344 net97
*1345 net98
*1346 net99
*1347 rd_addr\[0\]
*1348 rd_addr\[10\]
*1349 rd_addr\[11\]
*1350 rd_addr\[12\]
*1351 rd_addr\[13\]
*1352 rd_addr\[14\]
*1353 rd_addr\[15\]
*1354 rd_addr\[16\]
*1355 rd_addr\[17\]
*1356 rd_addr\[18\]
*1357 rd_addr\[19\]
*1358 rd_addr\[1\]
*1359 rd_addr\[20\]
*1360 rd_addr\[21\]
*1361 rd_addr\[22\]
*1362 rd_addr\[23\]
*1363 rd_addr\[2\]
*1364 rd_addr\[3\]
*1365 rd_addr\[4\]
*1366 rd_addr\[5\]
*1367 rd_addr\[6\]
*1368 rd_addr\[7\]
*1369 rd_addr\[8\]
*1370 rd_addr\[9\]
*1371 rd_inc
*1372 rd_valid
*1373 rd_wait
*1374 softreset
*1375 state\[0\]
*1376 state\[10\]
*1377 state\[11\]
*1378 state\[12\]
*1379 state\[1\]
*1380 state\[2\]
*1381 state\[3\]
*1382 state\[4\]
*1383 state\[5\]
*1384 state\[6\]
*1385 state\[7\]
*1386 state\[8\]
*1387 state\[9\]
*1388 xfer\.count\[0\]
*1389 xfer\.count\[1\]
*1390 xfer\.count\[2\]
*1391 xfer\.count\[3\]
*1392 xfer\.din_data\[0\]
*1393 xfer\.din_data\[1\]
*1394 xfer\.din_data\[2\]
*1395 xfer\.din_data\[3\]
*1396 xfer\.din_data\[4\]
*1397 xfer\.din_data\[5\]
*1398 xfer\.din_data\[6\]
*1399 xfer\.din_data\[7\]
*1400 xfer\.din_qspi
*1401 xfer\.din_rd
*1402 xfer\.din_tag\[0\]
*1403 xfer\.din_tag\[1\]
*1404 xfer\.din_tag\[2\]
*1405 xfer\.din_valid
*1406 xfer\.dout_data\[0\]
*1407 xfer\.dout_data\[1\]
*1408 xfer\.dout_data\[2\]
*1409 xfer\.dout_data\[3\]
*1410 xfer\.dout_data\[4\]
*1411 xfer\.dout_data\[5\]
*1412 xfer\.dout_data\[6\]
*1413 xfer\.dout_data\[7\]
*1414 xfer\.dout_tag\[0\]
*1415 xfer\.dout_tag\[1\]
*1416 xfer\.dout_tag\[2\]
*1417 xfer\.dummy_count\[0\]
*1418 xfer\.dummy_count\[1\]
*1419 xfer\.dummy_count\[2\]
*1420 xfer\.dummy_count\[3\]
*1421 xfer\.fetch
*1422 xfer\.flash_clk
*1423 xfer\.flash_csb
*1424 xfer\.flash_io0_do
*1425 xfer\.flash_io1_do
*1426 xfer\.flash_io2_do
*1427 xfer\.flash_io3_do
*1428 xfer\.last_fetch
*1429 xfer\.obuffer\[0\]
*1430 xfer\.obuffer\[1\]
*1431 xfer\.obuffer\[2\]
*1432 xfer\.obuffer\[3\]
*1433 xfer\.obuffer\[4\]
*1434 xfer\.obuffer\[5\]
*1435 xfer\.obuffer\[6\]
*1436 xfer\.obuffer\[7\]
*1437 xfer\.resetn
*1438 xfer\.xfer_ddr
*1439 xfer\.xfer_ddr_q
*1440 xfer\.xfer_dspi
*1441 xfer\.xfer_qspi
*1442 xfer\.xfer_rd
*1443 xfer\.xfer_tag\[0\]
*1444 xfer\.xfer_tag\[1\]
*1445 xfer\.xfer_tag\[2\]
*1446 xfer_io0_90
*1447 xfer_io1_90
*1448 xfer_io2_90
*1449 xfer_io3_90
*1450 ANTENNA__1032__A2
*1451 ANTENNA__1035__A2
*1452 ANTENNA__1046__B2
*1453 ANTENNA__1047__A1
*1454 ANTENNA__1047__A2
*1455 ANTENNA__1049__A2
*1456 ANTENNA__1051__A2
*1457 ANTENNA__1054__I
*1458 ANTENNA__1057__I
*1459 ANTENNA__1064__A2
*1460 ANTENNA__1066__I
*1461 ANTENNA__1073__A1
*1462 ANTENNA__1073__A2
*1463 ANTENNA__1077__A2
*1464 ANTENNA__1078__A2
*1465 ANTENNA__1083__I
*1466 ANTENNA__1085__A1
*1467 ANTENNA__1086__I
*1468 ANTENNA__1089__A2
*1469 ANTENNA__1093__B2
*1470 ANTENNA__1096__I
*1471 ANTENNA__1102__I
*1472 ANTENNA__1103__A2
*1473 ANTENNA__1107__A2
*1474 ANTENNA__1107__B2
*1475 ANTENNA__1111__A2
*1476 ANTENNA__1112__B2
*1477 ANTENNA__1115__B2
*1478 ANTENNA__1125__A2
*1479 ANTENNA__1125__B
*1480 ANTENNA__1132__I
*1481 ANTENNA__1134__A1
*1482 ANTENNA__1145__A2
*1483 ANTENNA__1151__B
*1484 ANTENNA__1152__A1
*1485 ANTENNA__1155__I
*1486 ANTENNA__1159__B
*1487 ANTENNA__1162__A2
*1488 ANTENNA__1175__B
*1489 ANTENNA__1176__A1
*1490 ANTENNA__1179__A1
*1491 ANTENNA__1184__A2
*1492 ANTENNA__1187__A1
*1493 ANTENNA__1189__A2
*1494 ANTENNA__1193__B2
*1495 ANTENNA__1207__A1
*1496 ANTENNA__1208__B
*1497 ANTENNA__1212__A2
*1498 ANTENNA__1222__A3
*1499 ANTENNA__1226__A2
*1500 ANTENNA__1227__A2
*1501 ANTENNA__1229__I
*1502 ANTENNA__1236__A1
*1503 ANTENNA__1237__A1
*1504 ANTENNA__1239__A4
*1505 ANTENNA__1267__A2
*1506 ANTENNA__1268__A1
*1507 ANTENNA__1268__A2
*1508 ANTENNA__1270__C
*1509 ANTENNA__1275__A1
*1510 ANTENNA__1275__A2
*1511 ANTENNA__1277__C
*1512 ANTENNA__1287__A2
*1513 ANTENNA__1288__A2
*1514 ANTENNA__1295__A3
*1515 ANTENNA__1295__A4
*1516 ANTENNA__1296__I
*1517 ANTENNA__1298__I
*1518 ANTENNA__1300__B
*1519 ANTENNA__1306__I
*1520 ANTENNA__1308__A1
*1521 ANTENNA__1309__A2
*1522 ANTENNA__1315__I
*1523 ANTENNA__1318__A1
*1524 ANTENNA__1319__A4
*1525 ANTENNA__1325__A3
*1526 ANTENNA__1327__I
*1527 ANTENNA__1328__A1
*1528 ANTENNA__1332__A1
*1529 ANTENNA__1337__A3
*1530 ANTENNA__1353__A1
*1531 ANTENNA__1383__I
*1532 ANTENNA__1384__A1
*1533 ANTENNA__1389__A1
*1534 ANTENNA__1402__A1
*1535 ANTENNA__1403__A1
*1536 ANTENNA__1409__A1
*1537 ANTENNA__1410__A1
*1538 ANTENNA__1420__S
*1539 ANTENNA__1423__I
*1540 ANTENNA__1424__S
*1541 ANTENNA__1428__S
*1542 ANTENNA__1432__S
*1543 ANTENNA__1436__I0
*1544 ANTENNA__1465__A1
*1545 ANTENNA__1466__A1
*1546 ANTENNA__1481__I0
*1547 ANTENNA__1491__B
*1548 ANTENNA__1492__A2
*1549 ANTENNA__1497__I
*1550 ANTENNA__1500__A2
*1551 ANTENNA__1502__A2
*1552 ANTENNA__1506__A2
*1553 ANTENNA__1508__A2
*1554 ANTENNA__1511__I
*1555 ANTENNA__1513__A1
*1556 ANTENNA__1517__B
*1557 ANTENNA__1524__B
*1558 ANTENNA__1555__A1
*1559 ANTENNA__1556__I
*1560 ANTENNA__1563__A2
*1561 ANTENNA__1565__I
*1562 ANTENNA__1566__S
*1563 ANTENNA__1568__S
*1564 ANTENNA__1572__S
*1565 ANTENNA__1574__S
*1566 ANTENNA__1576__S
*1567 ANTENNA__1578__S
*1568 ANTENNA__1611__I
*1569 ANTENNA__1612__S
*1570 ANTENNA__1614__S
*1571 ANTENNA__1616__S
*1572 ANTENNA__1618__S
*1573 ANTENNA__1620__I
*1574 ANTENNA__1629__I
*1575 ANTENNA__1634__I0
*1576 ANTENNA__1644__A1
*1577 ANTENNA__1646__I
*1578 ANTENNA__1647__I
*1579 ANTENNA__1654__A2
*1580 ANTENNA__1657__A2
*1581 ANTENNA__1659__A2
*1582 ANTENNA__1659__C
*1583 ANTENNA__1661__A2
*1584 ANTENNA__1662__A2
*1585 ANTENNA__1662__C
*1586 ANTENNA__1663__A1
*1587 ANTENNA__1664__I
*1588 ANTENNA__1666__I
*1589 ANTENNA__1668__A2
*1590 ANTENNA__1671__A1
*1591 ANTENNA__1678__A1
*1592 ANTENNA__1678__B2
*1593 ANTENNA__1680__C
*1594 ANTENNA__1685__A1
*1595 ANTENNA__1685__A2
*1596 ANTENNA__1686__A1
*1597 ANTENNA__1686__C2
*1598 ANTENNA__1690__A2
*1599 ANTENNA__1691__A1
*1600 ANTENNA__1695__A2
*1601 ANTENNA__1696__C2
*1602 ANTENNA__1697__A1
*1603 ANTENNA__1702__B2
*1604 ANTENNA__1703__A1
*1605 ANTENNA__1703__B2
*1606 ANTENNA__1709__A1
*1607 ANTENNA__1710__I
*1608 ANTENNA__1711__A2
*1609 ANTENNA__1718__A1
*1610 ANTENNA__1719__A1
*1611 ANTENNA__1724__A1
*1612 ANTENNA__1724__B2
*1613 ANTENNA__1724__C2
*1614 ANTENNA__1728__A1
*1615 ANTENNA__1729__A1
*1616 ANTENNA__1729__B2
*1617 ANTENNA__1739__A1
*1618 ANTENNA__1743__S
*1619 ANTENNA__1745__S
*1620 ANTENNA__1747__S
*1621 ANTENNA__1749__S
*1622 ANTENNA__1752__I0
*1623 ANTENNA__1752__S
*1624 ANTENNA__1754__S
*1625 ANTENNA__1756__S
*1626 ANTENNA__1758__S
*1627 ANTENNA__1760__I
*1628 ANTENNA__1765__I
*1629 ANTENNA__1768__B
*1630 ANTENNA__1770__A2
*1631 ANTENNA__1770__A3
*1632 ANTENNA__1773__A2
*1633 ANTENNA__1775__I
*1634 ANTENNA__1783__A2
*1635 ANTENNA__1785__I
*1636 ANTENNA__1788__A2
*1637 ANTENNA__1792__A2
*1638 ANTENNA__1804__I
*1639 ANTENNA__1807__B
*1640 ANTENNA__1809__I
*1641 ANTENNA__1815__A1
*1642 ANTENNA__1816__B
*1643 ANTENNA__1819__A1
*1644 ANTENNA__1820__B
*1645 ANTENNA__1823__A1
*1646 ANTENNA__1824__B
*1647 ANTENNA__1826__I
*1648 ANTENNA__1859__A2
*1649 ANTENNA__1861__A1
*1650 ANTENNA__1861__A2
*1651 ANTENNA__1865__C
*1652 ANTENNA__1870__I0
*1653 ANTENNA__1875__A1
*1654 ANTENNA__1881__A1
*1655 ANTENNA__1881__B2
*1656 ANTENNA__1886__A1
*1657 ANTENNA__1891__A1
*1658 ANTENNA__1891__A2
*1659 ANTENNA__1895__A1
*1660 ANTENNA__1898__A2
*1661 ANTENNA__1899__A1
*1662 ANTENNA__1902__A2
*1663 ANTENNA__1906__A1
*1664 ANTENNA__1909__A1
*1665 ANTENNA__1910__A1
*1666 ANTENNA__1924__A1
*1667 ANTENNA__1928__B
*1668 ANTENNA__1932__A2
*1669 ANTENNA__1933__B
*1670 ANTENNA__1941__A1
*1671 ANTENNA__1951__A1
*1672 ANTENNA__1954__B
*1673 ANTENNA__1955__A2
*1674 ANTENNA__1957__A3
*1675 ANTENNA__1964__A1
*1676 ANTENNA__1964__A2
*1677 ANTENNA__1965__I1
*1678 ANTENNA__1967__I1
*1679 ANTENNA__1974__I
*1680 ANTENNA__1978__A1
*1681 ANTENNA__1978__A2
*1682 ANTENNA__1978__B
*1683 ANTENNA__1983__A1
*1684 ANTENNA__1989__B
*1685 ANTENNA__1990__A1
*1686 ANTENNA__1990__A2
*1687 ANTENNA__1992__A1
*1688 ANTENNA__1994__A1
*1689 ANTENNA__1995__A1
*1690 ANTENNA__1995__A2
*1691 ANTENNA__1995__B
*1692 ANTENNA__2000__A1
*1693 ANTENNA__2001__A1
*1694 ANTENNA__2004__A1
*1695 ANTENNA__2005__B
*1696 ANTENNA__2006__A1
*1697 ANTENNA__2006__A2
*1698 ANTENNA__2006__B
*1699 ANTENNA__2010__A1
*1700 ANTENNA__2013__I
*1701 ANTENNA__2014__A1
*1702 ANTENNA__2015__A1
*1703 ANTENNA__2015__A2
*1704 ANTENNA__2019__A1
*1705 ANTENNA__2020__A1
*1706 ANTENNA__2022__A1
*1707 ANTENNA__2023__A1
*1708 ANTENNA__2024__A1
*1709 ANTENNA__2024__A2
*1710 ANTENNA__2026__A1
*1711 ANTENNA__2029__A1
*1712 ANTENNA__2030__I
*1713 ANTENNA__2031__I
*1714 ANTENNA__2032__A1
*1715 ANTENNA__2035__I
*1716 ANTENNA__2037__A1
*1717 ANTENNA__2038__A1
*1718 ANTENNA__2041__A1
*1719 ANTENNA__2042__A1
*1720 ANTENNA__2042__A2
*1721 ANTENNA__2045__A1
*1722 ANTENNA__2046__A1
*1723 ANTENNA__2046__A2
*1724 ANTENNA__2049__A1
*1725 ANTENNA__2050__A1
*1726 ANTENNA__2050__A2
*1727 ANTENNA__2054__A1
*1728 ANTENNA__2055__A1
*1729 ANTENNA__2057__A1
*1730 ANTENNA__2057__A2
*1731 ANTENNA__2058__B
*1732 ANTENNA__2059__A1
*1733 ANTENNA__2060__A1
*1734 ANTENNA__2061__A1
*1735 ANTENNA__2062__B
*1736 ANTENNA__2063__A1
*1737 ANTENNA__2064__A2
*1738 ANTENNA__2065__A2
*1739 ANTENNA__2066__B
*1740 ANTENNA__2068__A1
*1741 ANTENNA__2068__A3
*1742 ANTENNA__2070__B
*1743 ANTENNA__2071__A1
*1744 ANTENNA__2071__A2
*1745 ANTENNA__2071__B
*1746 ANTENNA__2072__A2
*1747 ANTENNA__2074__A1
*1748 ANTENNA__2075__A1
*1749 ANTENNA__2075__A2
*1750 ANTENNA__2077__A1
*1751 ANTENNA__2080__A1
*1752 ANTENNA__2081__CLK
*1753 ANTENNA__2082__CLK
*1754 ANTENNA__2083__CLK
*1755 ANTENNA__2084__CLK
*1756 ANTENNA__2085__CLK
*1757 ANTENNA__2086__CLK
*1758 ANTENNA__2087__CLK
*1759 ANTENNA__2088__CLK
*1760 ANTENNA__2090__CLK
*1761 ANTENNA__2091__CLK
*1762 ANTENNA__2092__CLK
*1763 ANTENNA__2093__CLK
*1764 ANTENNA__2094__CLK
*1765 ANTENNA__2105__CLK
*1766 ANTENNA__2106__CLK
*1767 ANTENNA__2107__CLK
*1768 ANTENNA__2108__CLK
*1769 ANTENNA__2115__CLK
*1770 ANTENNA__2116__CLK
*1771 ANTENNA__2117__CLK
*1772 ANTENNA__2118__CLK
*1773 ANTENNA__2119__CLK
*1774 ANTENNA__2120__CLK
*1775 ANTENNA__2121__CLK
*1776 ANTENNA__2122__CLK
*1777 ANTENNA__2123__CLK
*1778 ANTENNA__2124__CLK
*1779 ANTENNA__2125__CLK
*1780 ANTENNA__2126__CLK
*1781 ANTENNA__2127__CLK
*1782 ANTENNA__2128__CLK
*1783 ANTENNA__2131__CLK
*1784 ANTENNA__2132__CLK
*1785 ANTENNA__2139__CLK
*1786 ANTENNA__2140__CLK
*1787 ANTENNA__2141__CLK
*1788 ANTENNA__2142__CLK
*1789 ANTENNA__2143__CLK
*1790 ANTENNA__2152__CLK
*1791 ANTENNA__2153__CLK
*1792 ANTENNA__2154__CLK
*1793 ANTENNA__2155__CLK
*1794 ANTENNA__2156__CLK
*1795 ANTENNA__2163__CLK
*1796 ANTENNA__2164__CLK
*1797 ANTENNA__2165__CLK
*1798 ANTENNA__2166__CLKN
*1799 ANTENNA__2167__CLKN
*1800 ANTENNA__2168__CLKN
*1801 ANTENNA__2169__CLKN
*1802 ANTENNA__2170__CLK
*1803 ANTENNA__2171__CLK
*1804 ANTENNA__2172__CLK
*1805 ANTENNA__2173__CLK
*1806 ANTENNA__2174__CLK
*1807 ANTENNA__2175__CLK
*1808 ANTENNA__2176__CLK
*1809 ANTENNA__2177__CLK
*1810 ANTENNA__2178__CLK
*1811 ANTENNA__2179__CLK
*1812 ANTENNA__2180__CLK
*1813 ANTENNA__2181__CLK
*1814 ANTENNA__2182__CLK
*1815 ANTENNA__2183__CLK
*1816 ANTENNA__2184__CLK
*1817 ANTENNA__2185__CLK
*1818 ANTENNA__2186__CLK
*1819 ANTENNA__2187__CLK
*1820 ANTENNA__2188__CLK
*1821 ANTENNA__2189__CLK
*1822 ANTENNA__2190__CLK
*1823 ANTENNA__2191__CLK
*1824 ANTENNA__2192__CLK
*1825 ANTENNA__2193__CLK
*1826 ANTENNA__2194__CLK
*1827 ANTENNA__2195__CLK
*1828 ANTENNA__2196__CLK
*1829 ANTENNA__2197__CLK
*1830 ANTENNA__2198__CLK
*1831 ANTENNA__2199__CLK
*1832 ANTENNA__2200__CLK
*1833 ANTENNA__2201__CLK
*1834 ANTENNA__2202__CLK
*1835 ANTENNA__2203__CLK
*1836 ANTENNA__2213__CLK
*1837 ANTENNA__2215__CLK
*1838 ANTENNA__2216__CLK
*1839 ANTENNA__2217__CLK
*1840 ANTENNA__2218__CLK
*1841 ANTENNA__2220__CLK
*1842 ANTENNA__2222__CLK
*1843 ANTENNA__2223__CLK
*1844 ANTENNA__2224__CLK
*1845 ANTENNA__2225__CLK
*1846 ANTENNA__2226__CLK
*1847 ANTENNA__2227__CLK
*1848 ANTENNA__2228__CLK
*1849 ANTENNA__2229__CLK
*1850 ANTENNA__2230__CLK
*1851 ANTENNA__2235__CLK
*1852 ANTENNA__2236__CLK
*1853 ANTENNA__2237__CLK
*1854 ANTENNA__2238__CLK
*1855 ANTENNA__2239__CLK
*1856 ANTENNA__2240__CLK
*1857 ANTENNA__2241__CLK
*1858 ANTENNA__2242__CLK
*1859 ANTENNA__2243__CLK
*1860 ANTENNA__2244__CLK
*1861 ANTENNA__2245__CLK
*1862 ANTENNA__2246__CLK
*1863 ANTENNA__2247__CLK
*1864 ANTENNA__2248__CLK
*1865 ANTENNA__2250__CLK
*1866 ANTENNA__2251__CLK
*1867 ANTENNA__2252__CLK
*1868 ANTENNA__2253__CLK
*1869 ANTENNA_clkbuf_0_clk_I
*1870 ANTENNA_clkbuf_4_0_0_clk_I
*1871 ANTENNA_clkbuf_4_10_0_clk_I
*1872 ANTENNA_clkbuf_4_11_0_clk_I