*SPEF "ieee 1481-1999"
*DESIGN "user_project_wrapper"
*DATE "11:11:11 Fri 11 11, 1111"
*VENDOR "OpenRCX"
*PROGRAM "Parallel Extraction"
*VERSION "1.0"
*DESIGN_FLOW "NAME_SCOPE LOCAL" "PIN_CAP NONE"
*DIVIDER /
*DELIMITER :
*BUS_DELIMITER []
*T_UNIT 1 NS
*C_UNIT 1 PF
*R_UNIT 1 OHM
*L_UNIT 1 HENRY

*NAME_MAP
*1 io_in[0]
*2 io_in[10]
*3 io_in[11]
*4 io_in[12]
*5 io_in[13]
*6 io_in[14]
*7 io_in[15]
*8 io_in[16]
*9 io_in[17]
*10 io_in[18]
*11 io_in[19]
*12 io_in[1]
*13 io_in[20]
*14 io_in[21]
*15 io_in[22]
*16 io_in[23]
*17 io_in[24]
*18 io_in[25]
*19 io_in[26]
*20 io_in[27]
*21 io_in[28]
*22 io_in[29]
*23 io_in[2]
*24 io_in[30]
*25 io_in[31]
*26 io_in[32]
*27 io_in[33]
*28 io_in[34]
*29 io_in[35]
*30 io_in[36]
*31 io_in[37]
*32 io_in[3]
*33 io_in[4]
*34 io_in[5]
*35 io_in[6]
*36 io_in[7]
*37 io_in[8]
*38 io_in[9]
*39 io_oeb[0]
*40 io_oeb[10]
*41 io_oeb[11]
*42 io_oeb[12]
*43 io_oeb[13]
*44 io_oeb[14]
*45 io_oeb[15]
*46 io_oeb[16]
*47 io_oeb[17]
*48 io_oeb[18]
*49 io_oeb[19]
*50 io_oeb[1]
*51 io_oeb[20]
*52 io_oeb[21]
*53 io_oeb[22]
*54 io_oeb[23]
*55 io_oeb[24]
*56 io_oeb[25]
*57 io_oeb[26]
*58 io_oeb[27]
*59 io_oeb[28]
*60 io_oeb[29]
*61 io_oeb[2]
*62 io_oeb[30]
*63 io_oeb[31]
*64 io_oeb[32]
*65 io_oeb[33]
*66 io_oeb[34]
*67 io_oeb[35]
*68 io_oeb[36]
*69 io_oeb[37]
*70 io_oeb[3]
*71 io_oeb[4]
*72 io_oeb[5]
*73 io_oeb[6]
*74 io_oeb[7]
*75 io_oeb[8]
*76 io_oeb[9]
*77 io_out[0]
*78 io_out[10]
*79 io_out[11]
*80 io_out[12]
*81 io_out[13]
*82 io_out[14]
*83 io_out[15]
*84 io_out[16]
*85 io_out[17]
*86 io_out[18]
*87 io_out[19]
*88 io_out[1]
*89 io_out[20]
*90 io_out[21]
*91 io_out[22]
*92 io_out[23]
*93 io_out[24]
*94 io_out[25]
*95 io_out[26]
*96 io_out[27]
*97 io_out[28]
*98 io_out[29]
*99 io_out[2]
*100 io_out[30]
*101 io_out[31]
*102 io_out[32]
*103 io_out[33]
*104 io_out[34]
*105 io_out[35]
*106 io_out[36]
*107 io_out[37]
*108 io_out[3]
*109 io_out[4]
*110 io_out[5]
*111 io_out[6]
*112 io_out[7]
*113 io_out[8]
*114 io_out[9]
*115 la_data_in[0]
*116 la_data_in[10]
*117 la_data_in[11]
*118 la_data_in[12]
*119 la_data_in[13]
*120 la_data_in[14]
*121 la_data_in[15]
*122 la_data_in[16]
*123 la_data_in[17]
*124 la_data_in[18]
*125 la_data_in[19]
*126 la_data_in[1]
*127 la_data_in[20]
*128 la_data_in[21]
*129 la_data_in[22]
*130 la_data_in[23]
*131 la_data_in[24]
*132 la_data_in[25]
*133 la_data_in[26]
*134 la_data_in[27]
*135 la_data_in[28]
*136 la_data_in[29]
*137 la_data_in[2]
*138 la_data_in[30]
*139 la_data_in[31]
*140 la_data_in[32]
*141 la_data_in[33]
*142 la_data_in[34]
*143 la_data_in[35]
*144 la_data_in[36]
*145 la_data_in[37]
*146 la_data_in[38]
*147 la_data_in[39]
*148 la_data_in[3]
*149 la_data_in[40]
*150 la_data_in[41]
*151 la_data_in[42]
*152 la_data_in[43]
*153 la_data_in[44]
*154 la_data_in[45]
*155 la_data_in[46]
*156 la_data_in[47]
*157 la_data_in[48]
*158 la_data_in[49]
*159 la_data_in[4]
*160 la_data_in[50]
*161 la_data_in[51]
*162 la_data_in[52]
*163 la_data_in[53]
*164 la_data_in[54]
*165 la_data_in[55]
*166 la_data_in[56]
*167 la_data_in[57]
*168 la_data_in[58]
*169 la_data_in[59]
*170 la_data_in[5]
*171 la_data_in[60]
*172 la_data_in[61]
*173 la_data_in[62]
*174 la_data_in[63]
*175 la_data_in[6]
*176 la_data_in[7]
*177 la_data_in[8]
*178 la_data_in[9]
*179 la_data_out[0]
*180 la_data_out[10]
*181 la_data_out[11]
*182 la_data_out[12]
*183 la_data_out[13]
*184 la_data_out[14]
*185 la_data_out[15]
*186 la_data_out[16]
*187 la_data_out[17]
*188 la_data_out[18]
*189 la_data_out[19]
*190 la_data_out[1]
*191 la_data_out[20]
*192 la_data_out[21]
*193 la_data_out[22]
*194 la_data_out[23]
*195 la_data_out[24]
*196 la_data_out[25]
*197 la_data_out[26]
*198 la_data_out[27]
*199 la_data_out[28]
*200 la_data_out[29]
*201 la_data_out[2]
*202 la_data_out[30]
*203 la_data_out[31]
*204 la_data_out[32]
*205 la_data_out[33]
*206 la_data_out[34]
*207 la_data_out[35]
*208 la_data_out[36]
*209 la_data_out[37]
*210 la_data_out[38]
*211 la_data_out[39]
*212 la_data_out[3]
*213 la_data_out[40]
*214 la_data_out[41]
*215 la_data_out[42]
*216 la_data_out[43]
*217 la_data_out[44]
*218 la_data_out[45]
*219 la_data_out[46]
*220 la_data_out[47]
*221 la_data_out[48]
*222 la_data_out[49]
*223 la_data_out[4]
*224 la_data_out[50]
*225 la_data_out[51]
*226 la_data_out[52]
*227 la_data_out[53]
*228 la_data_out[54]
*229 la_data_out[55]
*230 la_data_out[56]
*231 la_data_out[57]
*232 la_data_out[58]
*233 la_data_out[59]
*234 la_data_out[5]
*235 la_data_out[60]
*236 la_data_out[61]
*237 la_data_out[62]
*238 la_data_out[63]
*239 la_data_out[6]
*240 la_data_out[7]
*241 la_data_out[8]
*242 la_data_out[9]
*243 la_oenb[0]
*244 la_oenb[10]
*245 la_oenb[11]
*246 la_oenb[12]
*247 la_oenb[13]
*248 la_oenb[14]
*249 la_oenb[15]
*250 la_oenb[16]
*251 la_oenb[17]
*252 la_oenb[18]
*253 la_oenb[19]
*254 la_oenb[1]
*255 la_oenb[20]
*256 la_oenb[21]
*257 la_oenb[22]
*258 la_oenb[23]
*259 la_oenb[24]
*260 la_oenb[25]
*261 la_oenb[26]
*262 la_oenb[27]
*263 la_oenb[28]
*264 la_oenb[29]
*265 la_oenb[2]
*266 la_oenb[30]
*267 la_oenb[31]
*268 la_oenb[32]
*269 la_oenb[33]
*270 la_oenb[34]
*271 la_oenb[35]
*272 la_oenb[36]
*273 la_oenb[37]
*274 la_oenb[38]
*275 la_oenb[39]
*276 la_oenb[3]
*277 la_oenb[40]
*278 la_oenb[41]
*279 la_oenb[42]
*280 la_oenb[43]
*281 la_oenb[44]
*282 la_oenb[45]
*283 la_oenb[46]
*284 la_oenb[47]
*285 la_oenb[48]
*286 la_oenb[49]
*287 la_oenb[4]
*288 la_oenb[50]
*289 la_oenb[51]
*290 la_oenb[52]
*291 la_oenb[53]
*292 la_oenb[54]
*293 la_oenb[55]
*294 la_oenb[56]
*295 la_oenb[57]
*296 la_oenb[58]
*297 la_oenb[59]
*298 la_oenb[5]
*299 la_oenb[60]
*300 la_oenb[61]
*301 la_oenb[62]
*302 la_oenb[63]
*303 la_oenb[6]
*304 la_oenb[7]
*305 la_oenb[8]
*306 la_oenb[9]
*307 user_clock2
*308 user_irq[0]
*309 user_irq[1]
*310 user_irq[2]
*313 wb_clk_i
*314 wb_rst_i
*315 wbs_ack_o
*316 wbs_adr_i[0]
*317 wbs_adr_i[10]
*318 wbs_adr_i[11]
*319 wbs_adr_i[12]
*320 wbs_adr_i[13]
*321 wbs_adr_i[14]
*322 wbs_adr_i[15]
*323 wbs_adr_i[16]
*324 wbs_adr_i[17]
*325 wbs_adr_i[18]
*326 wbs_adr_i[19]
*327 wbs_adr_i[1]
*328 wbs_adr_i[20]
*329 wbs_adr_i[21]
*330 wbs_adr_i[22]
*331 wbs_adr_i[23]
*332 wbs_adr_i[24]
*333 wbs_adr_i[25]
*334 wbs_adr_i[26]
*335 wbs_adr_i[27]
*336 wbs_adr_i[28]
*337 wbs_adr_i[29]
*338 wbs_adr_i[2]
*339 wbs_adr_i[30]
*340 wbs_adr_i[31]
*341 wbs_adr_i[3]
*342 wbs_adr_i[4]
*343 wbs_adr_i[5]
*344 wbs_adr_i[6]
*345 wbs_adr_i[7]
*346 wbs_adr_i[8]
*347 wbs_adr_i[9]
*348 wbs_cyc_i
*349 wbs_dat_i[0]
*350 wbs_dat_i[10]
*351 wbs_dat_i[11]
*352 wbs_dat_i[12]
*353 wbs_dat_i[13]
*354 wbs_dat_i[14]
*355 wbs_dat_i[15]
*356 wbs_dat_i[16]
*357 wbs_dat_i[17]
*358 wbs_dat_i[18]
*359 wbs_dat_i[19]
*360 wbs_dat_i[1]
*361 wbs_dat_i[20]
*362 wbs_dat_i[21]
*363 wbs_dat_i[22]
*364 wbs_dat_i[23]
*365 wbs_dat_i[24]
*366 wbs_dat_i[25]
*367 wbs_dat_i[26]
*368 wbs_dat_i[27]
*369 wbs_dat_i[28]
*370 wbs_dat_i[29]
*371 wbs_dat_i[2]
*372 wbs_dat_i[30]
*373 wbs_dat_i[31]
*374 wbs_dat_i[3]
*375 wbs_dat_i[4]
*376 wbs_dat_i[5]
*377 wbs_dat_i[6]
*378 wbs_dat_i[7]
*379 wbs_dat_i[8]
*380 wbs_dat_i[9]
*381 wbs_dat_o[0]
*382 wbs_dat_o[10]
*383 wbs_dat_o[11]
*384 wbs_dat_o[12]
*385 wbs_dat_o[13]
*386 wbs_dat_o[14]
*387 wbs_dat_o[15]
*388 wbs_dat_o[16]
*389 wbs_dat_o[17]
*390 wbs_dat_o[18]
*391 wbs_dat_o[19]
*392 wbs_dat_o[1]
*393 wbs_dat_o[20]
*394 wbs_dat_o[21]
*395 wbs_dat_o[22]
*396 wbs_dat_o[23]
*397 wbs_dat_o[24]
*398 wbs_dat_o[25]
*399 wbs_dat_o[26]
*400 wbs_dat_o[27]
*401 wbs_dat_o[28]
*402 wbs_dat_o[29]
*403 wbs_dat_o[2]
*404 wbs_dat_o[30]
*405 wbs_dat_o[31]
*406 wbs_dat_o[3]
*407 wbs_dat_o[4]
*408 wbs_dat_o[5]
*409 wbs_dat_o[6]
*410 wbs_dat_o[7]
*411 wbs_dat_o[8]
*412 wbs_dat_o[9]
*413 wbs_sel_i[0]
*414 wbs_sel_i[1]
*415 wbs_sel_i[2]
*416 wbs_sel_i[3]
*417 wbs_stb_i
*418 wbs_we_i
*419 mem_addr\[0\]
*420 mem_addr\[10\]
*421 mem_addr\[11\]
*422 mem_addr\[12\]
*423 mem_addr\[13\]
*424 mem_addr\[14\]
*425 mem_addr\[15\]
*426 mem_addr\[16\]
*427 mem_addr\[17\]
*428 mem_addr\[18\]
*429 mem_addr\[19\]
*430 mem_addr\[1\]
*431 mem_addr\[20\]
*432 mem_addr\[21\]
*433 mem_addr\[22\]
*434 mem_addr\[23\]
*435 mem_addr\[24\]
*436 mem_addr\[25\]
*437 mem_addr\[26\]
*438 mem_addr\[27\]
*439 mem_addr\[28\]
*440 mem_addr\[29\]
*441 mem_addr\[2\]
*442 mem_addr\[30\]
*443 mem_addr\[31\]
*444 mem_addr\[3\]
*445 mem_addr\[4\]
*446 mem_addr\[5\]
*447 mem_addr\[6\]
*448 mem_addr\[7\]
*449 mem_addr\[8\]
*450 mem_addr\[9\]
*451 mem_instr
*452 mem_rdata\[0\]
*453 mem_rdata\[10\]
*454 mem_rdata\[11\]
*455 mem_rdata\[12\]
*456 mem_rdata\[13\]
*457 mem_rdata\[14\]
*458 mem_rdata\[15\]
*459 mem_rdata\[16\]
*460 mem_rdata\[17\]
*461 mem_rdata\[18\]
*462 mem_rdata\[19\]
*463 mem_rdata\[1\]
*464 mem_rdata\[20\]
*465 mem_rdata\[21\]
*466 mem_rdata\[22\]
*467 mem_rdata\[23\]
*468 mem_rdata\[24\]
*469 mem_rdata\[25\]
*470 mem_rdata\[26\]
*471 mem_rdata\[27\]
*472 mem_rdata\[28\]
*473 mem_rdata\[29\]
*474 mem_rdata\[2\]
*475 mem_rdata\[30\]
*476 mem_rdata\[31\]
*477 mem_rdata\[3\]
*478 mem_rdata\[4\]
*479 mem_rdata\[5\]
*480 mem_rdata\[6\]
*481 mem_rdata\[7\]
*482 mem_rdata\[8\]
*483 mem_rdata\[9\]
*484 mem_ready
*485 mem_valid
*486 mem_wdata\[0\]
*487 mem_wdata\[10\]
*488 mem_wdata\[11\]
*489 mem_wdata\[12\]
*490 mem_wdata\[13\]
*491 mem_wdata\[14\]
*492 mem_wdata\[15\]
*493 mem_wdata\[16\]
*494 mem_wdata\[17\]
*495 mem_wdata\[18\]
*496 mem_wdata\[19\]
*497 mem_wdata\[1\]
*498 mem_wdata\[20\]
*499 mem_wdata\[21\]
*500 mem_wdata\[22\]
*501 mem_wdata\[23\]
*502 mem_wdata\[24\]
*503 mem_wdata\[25\]
*504 mem_wdata\[26\]
*505 mem_wdata\[27\]
*506 mem_wdata\[28\]
*507 mem_wdata\[29\]
*508 mem_wdata\[2\]
*509 mem_wdata\[30\]
*510 mem_wdata\[31\]
*511 mem_wdata\[3\]
*512 mem_wdata\[4\]
*513 mem_wdata\[5\]
*514 mem_wdata\[6\]
*515 mem_wdata\[7\]
*516 mem_wdata\[8\]
*517 mem_wdata\[9\]
*518 mem_wstrb\[0\]
*519 mem_wstrb\[1\]
*520 mem_wstrb\[2\]
*521 mem_wstrb\[3\]
*522 pcpi_approx_mul_rd\[0\]
*523 pcpi_approx_mul_rd\[10\]
*524 pcpi_approx_mul_rd\[11\]
*525 pcpi_approx_mul_rd\[12\]
*526 pcpi_approx_mul_rd\[13\]
*527 pcpi_approx_mul_rd\[14\]
*528 pcpi_approx_mul_rd\[15\]
*529 pcpi_approx_mul_rd\[16\]
*530 pcpi_approx_mul_rd\[17\]
*531 pcpi_approx_mul_rd\[18\]
*532 pcpi_approx_mul_rd\[19\]
*533 pcpi_approx_mul_rd\[1\]
*534 pcpi_approx_mul_rd\[20\]
*535 pcpi_approx_mul_rd\[21\]
*536 pcpi_approx_mul_rd\[22\]
*537 pcpi_approx_mul_rd\[23\]
*538 pcpi_approx_mul_rd\[24\]
*539 pcpi_approx_mul_rd\[25\]
*540 pcpi_approx_mul_rd\[26\]
*541 pcpi_approx_mul_rd\[27\]
*542 pcpi_approx_mul_rd\[28\]
*543 pcpi_approx_mul_rd\[29\]
*544 pcpi_approx_mul_rd\[2\]
*545 pcpi_approx_mul_rd\[30\]
*546 pcpi_approx_mul_rd\[31\]
*547 pcpi_approx_mul_rd\[3\]
*548 pcpi_approx_mul_rd\[4\]
*549 pcpi_approx_mul_rd\[5\]
*550 pcpi_approx_mul_rd\[6\]
*551 pcpi_approx_mul_rd\[7\]
*552 pcpi_approx_mul_rd\[8\]
*553 pcpi_approx_mul_rd\[9\]
*554 pcpi_approx_mul_ready
*555 pcpi_approx_mul_wait
*556 pcpi_approx_mul_wr
*557 pcpi_div_rd\[0\]
*558 pcpi_div_rd\[10\]
*559 pcpi_div_rd\[11\]
*560 pcpi_div_rd\[12\]
*561 pcpi_div_rd\[13\]
*562 pcpi_div_rd\[14\]
*563 pcpi_div_rd\[15\]
*564 pcpi_div_rd\[16\]
*565 pcpi_div_rd\[17\]
*566 pcpi_div_rd\[18\]
*567 pcpi_div_rd\[19\]
*568 pcpi_div_rd\[1\]
*569 pcpi_div_rd\[20\]
*570 pcpi_div_rd\[21\]
*571 pcpi_div_rd\[22\]
*572 pcpi_div_rd\[23\]
*573 pcpi_div_rd\[24\]
*574 pcpi_div_rd\[25\]
*575 pcpi_div_rd\[26\]
*576 pcpi_div_rd\[27\]
*577 pcpi_div_rd\[28\]
*578 pcpi_div_rd\[29\]
*579 pcpi_div_rd\[2\]
*580 pcpi_div_rd\[30\]
*581 pcpi_div_rd\[31\]
*582 pcpi_div_rd\[3\]
*583 pcpi_div_rd\[4\]
*584 pcpi_div_rd\[5\]
*585 pcpi_div_rd\[6\]
*586 pcpi_div_rd\[7\]
*587 pcpi_div_rd\[8\]
*588 pcpi_div_rd\[9\]
*589 pcpi_div_ready
*590 pcpi_div_wait
*591 pcpi_div_wr
*592 pcpi_exact_mul_rd\[0\]
*593 pcpi_exact_mul_rd\[10\]
*594 pcpi_exact_mul_rd\[11\]
*595 pcpi_exact_mul_rd\[12\]
*596 pcpi_exact_mul_rd\[13\]
*597 pcpi_exact_mul_rd\[14\]
*598 pcpi_exact_mul_rd\[15\]
*599 pcpi_exact_mul_rd\[16\]
*600 pcpi_exact_mul_rd\[17\]
*601 pcpi_exact_mul_rd\[18\]
*602 pcpi_exact_mul_rd\[19\]
*603 pcpi_exact_mul_rd\[1\]
*604 pcpi_exact_mul_rd\[20\]
*605 pcpi_exact_mul_rd\[21\]
*606 pcpi_exact_mul_rd\[22\]
*607 pcpi_exact_mul_rd\[23\]
*608 pcpi_exact_mul_rd\[24\]
*609 pcpi_exact_mul_rd\[25\]
*610 pcpi_exact_mul_rd\[26\]
*611 pcpi_exact_mul_rd\[27\]
*612 pcpi_exact_mul_rd\[28\]
*613 pcpi_exact_mul_rd\[29\]
*614 pcpi_exact_mul_rd\[2\]
*615 pcpi_exact_mul_rd\[30\]
*616 pcpi_exact_mul_rd\[31\]
*617 pcpi_exact_mul_rd\[3\]
*618 pcpi_exact_mul_rd\[4\]
*619 pcpi_exact_mul_rd\[5\]
*620 pcpi_exact_mul_rd\[6\]
*621 pcpi_exact_mul_rd\[7\]
*622 pcpi_exact_mul_rd\[8\]
*623 pcpi_exact_mul_rd\[9\]
*624 pcpi_exact_mul_ready
*625 pcpi_exact_mul_wait
*626 pcpi_exact_mul_wr
*627 pcpi_insn\[0\]
*628 pcpi_insn\[10\]
*629 pcpi_insn\[11\]
*630 pcpi_insn\[12\]
*631 pcpi_insn\[13\]
*632 pcpi_insn\[14\]
*633 pcpi_insn\[15\]
*634 pcpi_insn\[16\]
*635 pcpi_insn\[17\]
*636 pcpi_insn\[18\]
*637 pcpi_insn\[19\]
*638 pcpi_insn\[1\]
*639 pcpi_insn\[20\]
*640 pcpi_insn\[21\]
*641 pcpi_insn\[22\]
*642 pcpi_insn\[23\]
*643 pcpi_insn\[24\]
*644 pcpi_insn\[25\]
*645 pcpi_insn\[26\]
*646 pcpi_insn\[27\]
*647 pcpi_insn\[28\]
*648 pcpi_insn\[29\]
*649 pcpi_insn\[2\]
*650 pcpi_insn\[30\]
*651 pcpi_insn\[31\]
*652 pcpi_insn\[3\]
*653 pcpi_insn\[4\]
*654 pcpi_insn\[5\]
*655 pcpi_insn\[6\]
*656 pcpi_insn\[7\]
*657 pcpi_insn\[8\]
*658 pcpi_insn\[9\]
*659 pcpi_mul_rd\[0\]
*660 pcpi_mul_rd\[10\]
*661 pcpi_mul_rd\[11\]
*662 pcpi_mul_rd\[12\]
*663 pcpi_mul_rd\[13\]
*664 pcpi_mul_rd\[14\]
*665 pcpi_mul_rd\[15\]
*666 pcpi_mul_rd\[16\]
*667 pcpi_mul_rd\[17\]
*668 pcpi_mul_rd\[18\]
*669 pcpi_mul_rd\[19\]
*670 pcpi_mul_rd\[1\]
*671 pcpi_mul_rd\[20\]
*672 pcpi_mul_rd\[21\]
*673 pcpi_mul_rd\[22\]
*674 pcpi_mul_rd\[23\]
*675 pcpi_mul_rd\[24\]
*676 pcpi_mul_rd\[25\]
*677 pcpi_mul_rd\[26\]
*678 pcpi_mul_rd\[27\]
*679 pcpi_mul_rd\[28\]
*680 pcpi_mul_rd\[29\]
*681 pcpi_mul_rd\[2\]
*682 pcpi_mul_rd\[30\]
*683 pcpi_mul_rd\[31\]
*684 pcpi_mul_rd\[3\]
*685 pcpi_mul_rd\[4\]
*686 pcpi_mul_rd\[5\]
*687 pcpi_mul_rd\[6\]
*688 pcpi_mul_rd\[7\]
*689 pcpi_mul_rd\[8\]
*690 pcpi_mul_rd\[9\]
*691 pcpi_mul_ready
*692 pcpi_mul_wait
*693 pcpi_mul_wr
*694 pcpi_rs1\[0\]
*695 pcpi_rs1\[10\]
*696 pcpi_rs1\[11\]
*697 pcpi_rs1\[12\]
*698 pcpi_rs1\[13\]
*699 pcpi_rs1\[14\]
*700 pcpi_rs1\[15\]
*701 pcpi_rs1\[16\]
*702 pcpi_rs1\[17\]
*703 pcpi_rs1\[18\]
*704 pcpi_rs1\[19\]
*705 pcpi_rs1\[1\]
*706 pcpi_rs1\[20\]
*707 pcpi_rs1\[21\]
*708 pcpi_rs1\[22\]
*709 pcpi_rs1\[23\]
*710 pcpi_rs1\[24\]
*711 pcpi_rs1\[25\]
*712 pcpi_rs1\[26\]
*713 pcpi_rs1\[27\]
*714 pcpi_rs1\[28\]
*715 pcpi_rs1\[29\]
*716 pcpi_rs1\[2\]
*717 pcpi_rs1\[30\]
*718 pcpi_rs1\[31\]
*719 pcpi_rs1\[3\]
*720 pcpi_rs1\[4\]
*721 pcpi_rs1\[5\]
*722 pcpi_rs1\[6\]
*723 pcpi_rs1\[7\]
*724 pcpi_rs1\[8\]
*725 pcpi_rs1\[9\]
*726 pcpi_rs2\[0\]
*727 pcpi_rs2\[10\]
*728 pcpi_rs2\[11\]
*729 pcpi_rs2\[12\]
*730 pcpi_rs2\[13\]
*731 pcpi_rs2\[14\]
*732 pcpi_rs2\[15\]
*733 pcpi_rs2\[16\]
*734 pcpi_rs2\[17\]
*735 pcpi_rs2\[18\]
*736 pcpi_rs2\[19\]
*737 pcpi_rs2\[1\]
*738 pcpi_rs2\[20\]
*739 pcpi_rs2\[21\]
*740 pcpi_rs2\[22\]
*741 pcpi_rs2\[23\]
*742 pcpi_rs2\[24\]
*743 pcpi_rs2\[25\]
*744 pcpi_rs2\[26\]
*745 pcpi_rs2\[27\]
*746 pcpi_rs2\[28\]
*747 pcpi_rs2\[29\]
*748 pcpi_rs2\[2\]
*749 pcpi_rs2\[30\]
*750 pcpi_rs2\[31\]
*751 pcpi_rs2\[3\]
*752 pcpi_rs2\[4\]
*753 pcpi_rs2\[5\]
*754 pcpi_rs2\[6\]
*755 pcpi_rs2\[7\]
*756 pcpi_rs2\[8\]
*757 pcpi_rs2\[9\]
*758 pcpi_valid
*759 ram_gwenb\[0\]
*760 ram_gwenb\[1\]
*761 ram_gwenb\[2\]
*762 ram_gwenb\[3\]
*763 ram_rdata\[0\]
*764 ram_rdata\[10\]
*765 ram_rdata\[11\]
*766 ram_rdata\[12\]
*767 ram_rdata\[13\]
*768 ram_rdata\[14\]
*769 ram_rdata\[15\]
*770 ram_rdata\[16\]
*771 ram_rdata\[17\]
*772 ram_rdata\[18\]
*773 ram_rdata\[19\]
*774 ram_rdata\[1\]
*775 ram_rdata\[20\]
*776 ram_rdata\[21\]
*777 ram_rdata\[22\]
*778 ram_rdata\[23\]
*779 ram_rdata\[24\]
*780 ram_rdata\[25\]
*781 ram_rdata\[26\]
*782 ram_rdata\[27\]
*783 ram_rdata\[28\]
*784 ram_rdata\[29\]
*785 ram_rdata\[2\]
*786 ram_rdata\[30\]
*787 ram_rdata\[31\]
*788 ram_rdata\[3\]
*789 ram_rdata\[4\]
*790 ram_rdata\[5\]
*791 ram_rdata\[6\]
*792 ram_rdata\[7\]
*793 ram_rdata\[8\]
*794 ram_rdata\[9\]
*795 ram_wenb\[0\]
*796 ram_wenb\[10\]
*797 ram_wenb\[11\]
*798 ram_wenb\[12\]
*799 ram_wenb\[13\]
*800 ram_wenb\[14\]
*801 ram_wenb\[15\]
*802 ram_wenb\[16\]
*803 ram_wenb\[17\]
*804 ram_wenb\[18\]
*805 ram_wenb\[19\]
*806 ram_wenb\[1\]
*807 ram_wenb\[20\]
*808 ram_wenb\[21\]
*809 ram_wenb\[22\]
*810 ram_wenb\[23\]
*811 ram_wenb\[24\]
*812 ram_wenb\[25\]
*813 ram_wenb\[26\]
*814 ram_wenb\[27\]
*815 ram_wenb\[28\]
*816 ram_wenb\[29\]
*817 ram_wenb\[2\]
*818 ram_wenb\[30\]
*819 ram_wenb\[31\]
*820 ram_wenb\[3\]
*821 ram_wenb\[4\]
*822 ram_wenb\[5\]
*823 ram_wenb\[6\]
*824 ram_wenb\[7\]
*825 ram_wenb\[8\]
*826 ram_wenb\[9\]
*827 reset
*828 resetn
*829 simpleuart_dat_re
*830 simpleuart_dat_we
*831 simpleuart_div_we\[0\]
*832 simpleuart_div_we\[1\]
*833 simpleuart_div_we\[2\]
*834 simpleuart_div_we\[3\]
*835 simpleuart_reg_dat_do\[0\]
*836 simpleuart_reg_dat_do\[10\]
*837 simpleuart_reg_dat_do\[11\]
*838 simpleuart_reg_dat_do\[12\]
*839 simpleuart_reg_dat_do\[13\]
*840 simpleuart_reg_dat_do\[14\]
*841 simpleuart_reg_dat_do\[15\]
*842 simpleuart_reg_dat_do\[16\]
*843 simpleuart_reg_dat_do\[17\]
*844 simpleuart_reg_dat_do\[18\]
*845 simpleuart_reg_dat_do\[19\]
*846 simpleuart_reg_dat_do\[1\]
*847 simpleuart_reg_dat_do\[20\]
*848 simpleuart_reg_dat_do\[21\]
*849 simpleuart_reg_dat_do\[22\]
*850 simpleuart_reg_dat_do\[23\]
*851 simpleuart_reg_dat_do\[24\]
*852 simpleuart_reg_dat_do\[25\]
*853 simpleuart_reg_dat_do\[26\]
*854 simpleuart_reg_dat_do\[27\]
*855 simpleuart_reg_dat_do\[28\]
*856 simpleuart_reg_dat_do\[29\]
*857 simpleuart_reg_dat_do\[2\]
*858 simpleuart_reg_dat_do\[30\]
*859 simpleuart_reg_dat_do\[31\]
*860 simpleuart_reg_dat_do\[3\]
*861 simpleuart_reg_dat_do\[4\]
*862 simpleuart_reg_dat_do\[5\]
*863 simpleuart_reg_dat_do\[6\]
*864 simpleuart_reg_dat_do\[7\]
*865 simpleuart_reg_dat_do\[8\]
*866 simpleuart_reg_dat_do\[9\]
*867 simpleuart_reg_dat_wait
*868 simpleuart_reg_div_do\[0\]
*869 simpleuart_reg_div_do\[10\]
*870 simpleuart_reg_div_do\[11\]
*871 simpleuart_reg_div_do\[12\]
*872 simpleuart_reg_div_do\[13\]
*873 simpleuart_reg_div_do\[14\]
*874 simpleuart_reg_div_do\[15\]
*875 simpleuart_reg_div_do\[16\]
*876 simpleuart_reg_div_do\[17\]
*877 simpleuart_reg_div_do\[18\]
*878 simpleuart_reg_div_do\[19\]
*879 simpleuart_reg_div_do\[1\]
*880 simpleuart_reg_div_do\[20\]
*881 simpleuart_reg_div_do\[21\]
*882 simpleuart_reg_div_do\[22\]
*883 simpleuart_reg_div_do\[23\]
*884 simpleuart_reg_div_do\[24\]
*885 simpleuart_reg_div_do\[25\]
*886 simpleuart_reg_div_do\[26\]
*887 simpleuart_reg_div_do\[27\]
*888 simpleuart_reg_div_do\[28\]
*889 simpleuart_reg_div_do\[29\]
*890 simpleuart_reg_div_do\[2\]
*891 simpleuart_reg_div_do\[30\]
*892 simpleuart_reg_div_do\[31\]
*893 simpleuart_reg_div_do\[3\]
*894 simpleuart_reg_div_do\[4\]
*895 simpleuart_reg_div_do\[5\]
*896 simpleuart_reg_div_do\[6\]
*897 simpleuart_reg_div_do\[7\]
*898 simpleuart_reg_div_do\[8\]
*899 simpleuart_reg_div_do\[9\]
*900 spimem_rdata\[0\]
*901 spimem_rdata\[10\]
*902 spimem_rdata\[11\]
*903 spimem_rdata\[12\]
*904 spimem_rdata\[13\]
*905 spimem_rdata\[14\]
*906 spimem_rdata\[15\]
*907 spimem_rdata\[16\]
*908 spimem_rdata\[17\]
*909 spimem_rdata\[18\]
*910 spimem_rdata\[19\]
*911 spimem_rdata\[1\]
*912 spimem_rdata\[20\]
*913 spimem_rdata\[21\]
*914 spimem_rdata\[22\]
*915 spimem_rdata\[23\]
*916 spimem_rdata\[24\]
*917 spimem_rdata\[25\]
*918 spimem_rdata\[26\]
*919 spimem_rdata\[27\]
*920 spimem_rdata\[28\]
*921 spimem_rdata\[29\]
*922 spimem_rdata\[2\]
*923 spimem_rdata\[30\]
*924 spimem_rdata\[31\]
*925 spimem_rdata\[3\]
*926 spimem_rdata\[4\]
*927 spimem_rdata\[5\]
*928 spimem_rdata\[6\]
*929 spimem_rdata\[7\]
*930 spimem_rdata\[8\]
*931 spimem_rdata\[9\]
*932 spimem_ready
*933 spimem_valid
*934 spimemio_cfgreg_do\[0\]
*935 spimemio_cfgreg_do\[10\]
*936 spimemio_cfgreg_do\[11\]
*937 spimemio_cfgreg_do\[12\]
*938 spimemio_cfgreg_do\[13\]
*939 spimemio_cfgreg_do\[14\]
*940 spimemio_cfgreg_do\[15\]
*941 spimemio_cfgreg_do\[16\]
*942 spimemio_cfgreg_do\[17\]
*943 spimemio_cfgreg_do\[18\]
*944 spimemio_cfgreg_do\[19\]
*945 spimemio_cfgreg_do\[1\]
*946 spimemio_cfgreg_do\[20\]
*947 spimemio_cfgreg_do\[21\]
*948 spimemio_cfgreg_do\[22\]
*949 spimemio_cfgreg_do\[23\]
*950 spimemio_cfgreg_do\[24\]
*951 spimemio_cfgreg_do\[25\]
*952 spimemio_cfgreg_do\[26\]
*953 spimemio_cfgreg_do\[27\]
*954 spimemio_cfgreg_do\[28\]
*955 spimemio_cfgreg_do\[29\]
*956 spimemio_cfgreg_do\[2\]
*957 spimemio_cfgreg_do\[30\]
*958 spimemio_cfgreg_do\[31\]
*959 spimemio_cfgreg_do\[3\]
*960 spimemio_cfgreg_do\[4\]
*961 spimemio_cfgreg_do\[5\]
*962 spimemio_cfgreg_do\[6\]
*963 spimemio_cfgreg_do\[7\]
*964 spimemio_cfgreg_do\[8\]
*965 spimemio_cfgreg_do\[9\]
*966 spimemio_cfgreg_we\[0\]
*967 spimemio_cfgreg_we\[1\]
*968 spimemio_cfgreg_we\[2\]
*969 spimemio_cfgreg_we\[3\]
*970 cpu_inst_0
*971 ctrl_inst_0
*972 pcpi_approx_mul_inst_0
*973 pcpi_div_inst_0
*974 pcpi_exact_mul_inst_0
*975 pcpi_mul_inst_0
*976 simple_interconnect_inst_0
*977 simpleuart
*978 spimemio
*979 sram512x8_0
*980 sram512x8_1
*981 sram512x8_2
*982 sram512x8_3
*983 user_proj_example_inst_0

*PORTS
io_in[0] I
io_in[10] I
io_in[11] I
io_in[12] I
io_in[13] I
io_in[14] I
io_in[15] I
io_in[16] I
io_in[17] I
io_in[18] I
io_in[19] I
io_in[1] I
io_in[20] I
io_in[21] I
io_in[22] I
io_in[23] I
io_in[24] I
io_in[25] I
io_in[26] I
io_in[27] I
io_in[28] I
io_in[29] I
io_in[2] I
io_in[30] I
io_in[31] I
io_in[32] I
io_in[33] I
io_in[34] I
io_in[35] I
io_in[36] I
io_in[37] I
io_in[3] I
io_in[4] I
io_in[5] I
io_in[6] I
io_in[7] I
io_in[8] I
io_in[9] I
io_oeb[0] O
io_oeb[10] O
io_oeb[11] O
io_oeb[12] O
io_oeb[13] O
io_oeb[14] O
io_oeb[15] O
io_oeb[16] O
io_oeb[17] O
io_oeb[18] O
io_oeb[19] O
io_oeb[1] O
io_oeb[20] O
io_oeb[21] O
io_oeb[22] O
io_oeb[23] O
io_oeb[24] O
io_oeb[25] O
io_oeb[26] O
io_oeb[27] O
io_oeb[28] O
io_oeb[29] O
io_oeb[2] O
io_oeb[30] O
io_oeb[31] O
io_oeb[32] O
io_oeb[33] O
io_oeb[34] O
io_oeb[35] O
io_oeb[36] O
io_oeb[37] O
io_oeb[3] O
io_oeb[4] O
io_oeb[5] O
io_oeb[6] O
io_oeb[7] O
io_oeb[8] O
io_oeb[9] O
io_out[0] O
io_out[10] O
io_out[11] O
io_out[12] O
io_out[13] O
io_out[14] O
io_out[15] O
io_out[16] O
io_out[17] O
io_out[18] O
io_out[19] O
io_out[1] O
io_out[20] O
io_out[21] O
io_out[22] O
io_out[23] O
io_out[24] O
io_out[25] O
io_out[26] O
io_out[27] O
io_out[28] O
io_out[29] O
io_out[2] O
io_out[30] O
io_out[31] O
io_out[32] O
io_out[33] O
io_out[34] O
io_out[35] O
io_out[36] O
io_out[37] O
io_out[3] O
io_out[4] O
io_out[5] O
io_out[6] O
io_out[7] O
io_out[8] O
io_out[9] O
la_data_in[0] I
la_data_in[10] I
la_data_in[11] I
la_data_in[12] I
la_data_in[13] I
la_data_in[14] I
la_data_in[15] I
la_data_in[16] I
la_data_in[17] I
la_data_in[18] I
la_data_in[19] I
la_data_in[1] I
la_data_in[20] I
la_data_in[21] I
la_data_in[22] I
la_data_in[23] I
la_data_in[24] I
la_data_in[25] I
la_data_in[26] I
la_data_in[27] I
la_data_in[28] I
la_data_in[29] I
la_data_in[2] I
la_data_in[30] I
la_data_in[31] I
la_data_in[32] I
la_data_in[33] I
la_data_in[34] I
la_data_in[35] I
la_data_in[36] I
la_data_in[37] I
la_data_in[38] I
la_data_in[39] I
la_data_in[3] I
la_data_in[40] I
la_data_in[41] I
la_data_in[42] I
la_data_in[43] I
la_data_in[44] I
la_data_in[45] I
la_data_in[46] I
la_data_in[47] I
la_data_in[48] I
la_data_in[49] I
la_data_in[4] I
la_data_in[50] I
la_data_in[51] I
la_data_in[52] I
la_data_in[53] I
la_data_in[54] I
la_data_in[55] I
la_data_in[56] I
la_data_in[57] I
la_data_in[58] I
la_data_in[59] I
la_data_in[5] I
la_data_in[60] I
la_data_in[61] I
la_data_in[62] I
la_data_in[63] I
la_data_in[6] I
la_data_in[7] I
la_data_in[8] I
la_data_in[9] I
la_data_out[0] O
la_data_out[10] O
la_data_out[11] O
la_data_out[12] O
la_data_out[13] O
la_data_out[14] O
la_data_out[15] O
la_data_out[16] O
la_data_out[17] O
la_data_out[18] O
la_data_out[19] O
la_data_out[1] O
la_data_out[20] O
la_data_out[21] O
la_data_out[22] O
la_data_out[23] O
la_data_out[24] O
la_data_out[25] O
la_data_out[26] O
la_data_out[27] O
la_data_out[28] O
la_data_out[29] O
la_data_out[2] O
la_data_out[30] O
la_data_out[31] O
la_data_out[32] O
la_data_out[33] O
la_data_out[34] O
la_data_out[35] O
la_data_out[36] O
la_data_out[37] O
la_data_out[38] O
la_data_out[39] O
la_data_out[3] O
la_data_out[40] O
la_data_out[41] O
la_data_out[42] O
la_data_out[43] O
la_data_out[44] O
la_data_out[45] O
la_data_out[46] O
la_data_out[47] O
la_data_out[48] O
la_data_out[49] O
la_data_out[4] O
la_data_out[50] O
la_data_out[51] O
la_data_out[52] O
la_data_out[53] O
la_data_out[54] O
la_data_out[55] O
la_data_out[56] O
la_data_out[57] O
la_data_out[58] O
la_data_out[59] O
la_data_out[5] O
la_data_out[60] O
la_data_out[61] O
la_data_out[62] O
la_data_out[63] O
la_data_out[6] O
la_data_out[7] O
la_data_out[8] O
la_data_out[9] O
la_oenb[0] I
la_oenb[10] I
la_oenb[11] I
la_oenb[12] I
la_oenb[13] I
la_oenb[14] I
la_oenb[15] I
la_oenb[16] I
la_oenb[17] I
la_oenb[18] I
la_oenb[19] I
la_oenb[1] I
la_oenb[20] I
la_oenb[21] I
la_oenb[22] I
la_oenb[23] I
la_oenb[24] I
la_oenb[25] I
la_oenb[26] I
la_oenb[27] I
la_oenb[28] I
la_oenb[29] I
la_oenb[2] I
la_oenb[30] I
la_oenb[31] I
la_oenb[32] I
la_oenb[33] I
la_oenb[34] I
la_oenb[35] I
la_oenb[36] I
la_oenb[37] I
la_oenb[38] I
la_oenb[39] I
la_oenb[3] I
la_oenb[40] I
la_oenb[41] I
la_oenb[42] I
la_oenb[43] I
la_oenb[44] I
la_oenb[45] I
la_oenb[46] I
la_oenb[47] I
la_oenb[48] I
la_oenb[49] I
la_oenb[4] I
la_oenb[50] I
la_oenb[51] I
la_oenb[52] I
la_oenb[53] I
la_oenb[54] I
la_oenb[55] I
la_oenb[56] I
la_oenb[57] I
la_oenb[58] I
la_oenb[59] I
la_oenb[5] I
la_oenb[60] I
la_oenb[61] I
la_oenb[62] I
la_oenb[63] I
la_oenb[6] I
la_oenb[7] I
la_oenb[8] I
la_oenb[9] I
user_clock2 I
user_irq[0] O
user_irq[1] O
user_irq[2] O
wb_clk_i I
wb_rst_i I
wbs_ack_o O
wbs_adr_i[0] I
wbs_adr_i[10] I
wbs_adr_i[11] I
wbs_adr_i[12] I
wbs_adr_i[13] I
wbs_adr_i[14] I
wbs_adr_i[15] I
wbs_adr_i[16] I
wbs_adr_i[17] I
wbs_adr_i[18] I
wbs_adr_i[19] I
wbs_adr_i[1] I
wbs_adr_i[20] I
wbs_adr_i[21] I
wbs_adr_i[22] I
wbs_adr_i[23] I
wbs_adr_i[24] I
wbs_adr_i[25] I
wbs_adr_i[26] I
wbs_adr_i[27] I
wbs_adr_i[28] I
wbs_adr_i[29] I
wbs_adr_i[2] I
wbs_adr_i[30] I
wbs_adr_i[31] I
wbs_adr_i[3] I
wbs_adr_i[4] I
wbs_adr_i[5] I
wbs_adr_i[6] I
wbs_adr_i[7] I
wbs_adr_i[8] I
wbs_adr_i[9] I
wbs_cyc_i I
wbs_dat_i[0] I
wbs_dat_i[10] I
wbs_dat_i[11] I
wbs_dat_i[12] I
wbs_dat_i[13] I
wbs_dat_i[14] I
wbs_dat_i[15] I
wbs_dat_i[16] I
wbs_dat_i[17] I
wbs_dat_i[18] I
wbs_dat_i[19] I
wbs_dat_i[1] I
wbs_dat_i[20] I
wbs_dat_i[21] I
wbs_dat_i[22] I
wbs_dat_i[23] I
wbs_dat_i[24] I
wbs_dat_i[25] I
wbs_dat_i[26] I
wbs_dat_i[27] I
wbs_dat_i[28] I
wbs_dat_i[29] I
wbs_dat_i[2] I
wbs_dat_i[30] I
wbs_dat_i[31] I
wbs_dat_i[3] I
wbs_dat_i[4] I
wbs_dat_i[5] I
wbs_dat_i[6] I
wbs_dat_i[7] I
wbs_dat_i[8] I
wbs_dat_i[9] I
wbs_dat_o[0] O
wbs_dat_o[10] O
wbs_dat_o[11] O
wbs_dat_o[12] O
wbs_dat_o[13] O
wbs_dat_o[14] O
wbs_dat_o[15] O
wbs_dat_o[16] O
wbs_dat_o[17] O
wbs_dat_o[18] O
wbs_dat_o[19] O
wbs_dat_o[1] O
wbs_dat_o[20] O
wbs_dat_o[21] O
wbs_dat_o[22] O
wbs_dat_o[23] O
wbs_dat_o[24] O
wbs_dat_o[25] O
wbs_dat_o[26] O
wbs_dat_o[27] O
wbs_dat_o[28] O
wbs_dat_o[29] O
wbs_dat_o[2] O
wbs_dat_o[30] O
wbs_dat_o[31] O
wbs_dat_o[3] O
wbs_dat_o[4] O
wbs_dat_o[5] O
wbs_dat_o[6] O
wbs_dat_o[7] O
wbs_dat_o[8] O
wbs_dat_o[9] O
wbs_sel_i[0] I
wbs_sel_i[1] I
wbs_sel_i[2] I
wbs_sel_i[3] I
wbs_stb_i I
wbs_we_i I

*D_NET *1 0.0212936
*CONN
*P io_in[0] I
*I *983:io_in[0] I *D user_proj_example
*CAP
1 io_in[0] 0.0106468
2 *983:io_in[0] 0.0106468
3 *983:io_in[0] *77:11 0
*RES
1 io_in[0] *983:io_in[0] 75.696 
*END

*D_NET *2 0.306094
*CONN
*P io_in[10] I
*I *978:flash_in[0] I *D spimemio
*CAP
1 io_in[10] 0.00264897
2 *978:flash_in[0] 0.00102732
3 *2:17 0.0157462
4 *2:15 0.0147189
5 *2:13 0.112797
6 *2:11 0.115446
7 *978:flash_in[0] *978:flash_in[1] 0
8 *978:flash_in[0] *932:13 0
9 *2:17 *3:9 0
10 *2:17 *41:9 0.0110746
11 *2:17 *441:75 0.0156741
12 *2:17 *770:13 0.000404348
13 *2:17 *771:13 0.0165565
*RES
1 io_in[10] *2:11 26.898 
2 *2:11 *2:13 799.596 
3 *2:13 *2:15 4.5 
4 *2:15 *2:17 156.332 
5 *2:17 *978:flash_in[0] 14.092 
*END

*D_NET *3 0.332702
*CONN
*P io_in[11] I
*I *978:flash_in[1] I *D spimemio
*CAP
1 io_in[11] 0.113523
2 *978:flash_in[1] 0.0041051
3 *3:9 0.0261578
4 *3:7 0.0220527
5 *3:5 0.113523
6 *978:flash_in[1] *490:45 0
7 *978:flash_in[1] *515:73 0.00157382
8 *978:flash_in[1] *933:12 0.000218841
9 *978:flash_in[1] *938:13 0
10 *3:9 *978:addr[13] 0.0144723
11 *3:9 *978:addr[23] 0.000535549
12 *3:9 *421:34 0
13 *3:9 *428:27 0.00213155
14 *3:9 *429:31 0.000960962
15 *3:9 *430:37 0.000376564
16 *3:9 *445:65 0.00222234
17 *3:9 *450:69 0.0272687
18 *3:9 *771:13 0
19 *3:9 *792:13 0.00357949
20 *978:flash_in[0] *978:flash_in[1] 0
21 *2:17 *3:9 0
*RES
1 io_in[11] *3:5 805.03 
2 *3:5 *3:7 4.5 
3 *3:7 *3:9 219.716 
4 *3:9 *978:flash_in[1] 34.764 
*END

*D_NET *4 0.312964
*CONN
*P io_in[12] I
*I *978:flash_in[2] I *D spimemio
*CAP
1 io_in[12] 0.00141898
2 *978:flash_in[2] 0.000997483
3 *4:17 0.00631317
4 *4:15 0.00531569
5 *4:13 0.101057
6 *4:11 0.101057
7 *4:9 0.0170483
8 *4:7 0.0184672
9 *978:flash_in[2] *978:flash_in[3] 0.0007195
10 *978:flash_in[2] *5:23 0.00454365
11 *978:flash_in[2] *898:7 6.52541e-06
12 *978:flash_in[2] *922:11 0.00267091
13 *978:flash_in[2] *934:7 0.000120585
14 *978:flash_in[2] *950:15 0.00179425
15 *978:flash_in[2] *950:25 0.00493931
16 *4:7 *44:17 0.00185727
17 *4:17 *5:23 0.00132955
18 *4:17 *40:9 0.0371297
19 *4:17 *868:11 0.00379756
20 *4:17 *950:15 0.00163755
21 *4:17 *954:9 0.000743439
*RES
1 io_in[12] *4:7 16.09 
2 *4:7 *4:9 123.044 
3 *4:9 *4:11 4.5 
4 *4:11 *4:13 718.124 
5 *4:13 *4:15 4.5 
6 *4:15 *4:17 97.0167 
7 *4:17 *978:flash_in[2] 31.7813 
*END

*D_NET *5 0.305642
*CONN
*P io_in[13] I
*I *978:flash_in[3] I *D spimemio
*CAP
1 io_in[13] 0.102079
2 *978:flash_in[3] 0.000997647
3 *5:23 0.00304542
4 *5:9 0.0371236
5 *5:7 0.0350758
6 *5:5 0.102079
7 *978:flash_in[3] *898:7 0.000173289
8 *978:flash_in[3] *911:13 0
9 *978:flash_in[3] *922:11 0.00250818
10 *978:flash_in[3] *945:11 0
11 *5:5 *6:13 0
12 *5:9 *497:81 7.48727e-05