*SPEF "ieee 1481-1999"
*DESIGN "user_proj_example"
*DATE "11:11:11 Fri 11 11, 1111"
*VENDOR "OpenRCX"
*PROGRAM "Parallel Extraction"
*VERSION "1.0"
*DESIGN_FLOW "NAME_SCOPE LOCAL" "PIN_CAP NONE"
*DIVIDER /
*DELIMITER :
*BUS_DELIMITER []
*T_UNIT 1 NS
*C_UNIT 1 PF
*R_UNIT 1 OHM
*L_UNIT 1 HENRY

*NAME_MAP
*1 io_in[0]
*2 io_in[1]
*3 io_in[2]
*4 io_in[3]
*5 io_in[4]
*6 io_in[5]
*7 io_in[6]
*8 io_in[7]
*9 io_oeb[0]
*10 io_oeb[1]
*11 io_oeb[2]
*12 io_oeb[3]
*13 io_oeb[4]
*14 io_oeb[5]
*15 io_oeb[6]
*16 io_oeb[7]
*17 io_out[0]
*18 io_out[1]
*19 io_out[2]
*20 io_out[3]
*21 io_out[4]
*22 io_out[5]
*23 io_out[6]
*24 io_out[7]
*25 net78
*26 net79
*27 net80
*28 la_data_in[0]
*29 la_data_in[10]
*30 la_data_in[11]
*31 la_data_in[12]
*32 la_data_in[13]
*33 la_data_in[14]
*34 la_data_in[15]
*35 la_data_in[16]
*36 la_data_in[17]
*37 la_data_in[18]
*38 la_data_in[19]
*39 la_data_in[1]
*40 la_data_in[20]
*41 la_data_in[21]
*42 la_data_in[22]
*43 la_data_in[23]
*44 la_data_in[24]
*45 la_data_in[25]
*46 la_data_in[26]
*47 la_data_in[27]
*48 la_data_in[28]
*49 la_data_in[29]
*50 la_data_in[2]
*51 la_data_in[30]
*52 la_data_in[31]
*53 la_data_in[32]
*54 la_data_in[33]
*55 la_data_in[34]
*56 la_data_in[35]
*57 la_data_in[36]
*58 la_data_in[37]
*59 la_data_in[38]
*60 la_data_in[39]
*61 la_data_in[3]
*62 la_data_in[40]
*63 la_data_in[41]
*64 la_data_in[42]
*65 la_data_in[43]
*66 la_data_in[44]
*67 la_data_in[45]
*68 la_data_in[46]
*69 la_data_in[47]
*70 la_data_in[48]
*71 la_data_in[49]
*72 la_data_in[4]
*73 la_data_in[50]
*74 la_data_in[51]
*75 la_data_in[52]
*76 la_data_in[53]
*77 la_data_in[54]
*78 la_data_in[55]
*79 la_data_in[56]
*80 la_data_in[57]
*81 la_data_in[58]
*82 la_data_in[59]
*83 la_data_in[5]
*84 la_data_in[60]
*85 la_data_in[61]
*86 la_data_in[62]
*87 la_data_in[63]
*88 la_data_in[6]
*89 la_data_in[7]
*90 la_data_in[8]
*91 la_data_in[9]
*92 la_data_out[0]
*93 net83
*94 net84
*95 net85
*96 net86
*97 net87
*98 net88
*99 net89
*100 net90
*101 net91
*102 net92
*103 la_data_out[1]
*104 net93
*105 net94
*106 net95
*107 net96
*108 net97
*109 net98
*110 net99
*111 net100
*112 net101
*113 net102
*114 la_data_out[2]
*115 net103
*116 net104
*117 net105
*118 net106
*119 net107
*120 net108
*121 net109
*122 net110
*123 net111
*124 net112
*125 la_data_out[3]
*126 net113
*127 net114
*128 net115
*129 net116
*130 net117
*131 net118
*132 net119
*133 net120
*134 net121
*135 net122
*136 la_data_out[4]
*137 net123
*138 net124
*139 net125
*140 net126
*141 net127
*142 net128
*143 net129
*144 net130
*145 net131
*146 net132
*147 la_data_out[5]
*148 net133
*149 net134
*150 net135
*151 net136
*152 la_data_out[6]
*153 la_data_out[7]
*154 net81
*155 net82
*156 la_oenb[0]
*157 la_oenb[10]
*158 la_oenb[11]
*159 la_oenb[12]
*160 la_oenb[13]
*161 la_oenb[14]
*162 la_oenb[15]
*163 la_oenb[16]
*164 la_oenb[17]
*165 la_oenb[18]
*166 la_oenb[19]
*167 la_oenb[1]
*168 la_oenb[20]
*169 la_oenb[21]
*170 la_oenb[22]
*171 la_oenb[23]
*172 la_oenb[24]
*173 la_oenb[25]
*174 la_oenb[26]
*175 la_oenb[27]
*176 la_oenb[28]
*177 la_oenb[29]
*178 la_oenb[2]
*179 la_oenb[30]
*180 la_oenb[31]
*181 la_oenb[32]
*182 la_oenb[33]
*183 la_oenb[34]
*184 la_oenb[35]
*185 la_oenb[36]
*186 la_oenb[37]
*187 la_oenb[38]
*188 la_oenb[39]
*189 la_oenb[3]
*190 la_oenb[40]
*191 la_oenb[41]
*192 la_oenb[42]
*193 la_oenb[43]
*194 la_oenb[44]
*195 la_oenb[45]
*196 la_oenb[46]
*197 la_oenb[47]
*198 la_oenb[48]
*199 la_oenb[49]
*200 la_oenb[4]
*201 la_oenb[50]
*202 la_oenb[51]
*203 la_oenb[52]
*204 la_oenb[53]
*205 la_oenb[54]
*206 la_oenb[55]
*207 la_oenb[56]
*208 la_oenb[57]
*209 la_oenb[58]
*210 la_oenb[59]
*211 la_oenb[5]
*212 la_oenb[60]
*213 la_oenb[61]
*214 la_oenb[62]
*215 la_oenb[63]
*216 la_oenb[6]
*217 la_oenb[7]
*218 la_oenb[8]
*219 la_oenb[9]
*222 wb_clk_i
*223 wb_rst_i
*224 wbs_ack_o
*225 wbs_adr_i[0]
*226 wbs_adr_i[10]
*227 wbs_adr_i[11]
*228 wbs_adr_i[12]
*229 wbs_adr_i[13]
*230 wbs_adr_i[14]
*231 wbs_adr_i[15]
*232 wbs_adr_i[16]
*233 wbs_adr_i[17]
*234 wbs_adr_i[18]
*235 wbs_adr_i[19]
*236 wbs_adr_i[1]
*237 wbs_adr_i[20]
*238 wbs_adr_i[21]
*239 wbs_adr_i[22]
*240 wbs_adr_i[23]
*241 wbs_adr_i[24]
*242 wbs_adr_i[25]
*243 wbs_adr_i[26]
*244 wbs_adr_i[27]
*245 wbs_adr_i[28]
*246 wbs_adr_i[29]
*247 wbs_adr_i[2]
*248 wbs_adr_i[30]
*249 wbs_adr_i[31]
*250 wbs_adr_i[3]
*251 wbs_adr_i[4]
*252 wbs_adr_i[5]
*253 wbs_adr_i[6]
*254 wbs_adr_i[7]
*255 wbs_adr_i[8]
*256 wbs_adr_i[9]
*257 wbs_cyc_i
*258 wbs_dat_i[0]
*259 wbs_dat_i[10]
*260 wbs_dat_i[11]
*261 wbs_dat_i[12]
*262 wbs_dat_i[13]
*263 wbs_dat_i[14]
*264 wbs_dat_i[15]
*265 wbs_dat_i[16]
*266 wbs_dat_i[17]
*267 wbs_dat_i[18]
*268 wbs_dat_i[19]
*269 wbs_dat_i[1]
*270 wbs_dat_i[20]
*271 wbs_dat_i[21]
*272 wbs_dat_i[22]
*273 wbs_dat_i[23]
*274 wbs_dat_i[24]
*275 wbs_dat_i[25]
*276 wbs_dat_i[26]
*277 wbs_dat_i[27]
*278 wbs_dat_i[28]
*279 wbs_dat_i[29]
*280 wbs_dat_i[2]
*281 wbs_dat_i[30]
*282 wbs_dat_i[31]
*283 wbs_dat_i[3]
*284 wbs_dat_i[4]
*285 wbs_dat_i[5]
*286 wbs_dat_i[6]
*287 wbs_dat_i[7]
*288 wbs_dat_i[8]
*289 wbs_dat_i[9]
*290 wbs_dat_o[0]
*291 net139
*292 net140
*293 net141
*294 net142
*295 net143
*296 net144
*297 net145
*298 net146
*299 net147
*300 net148
*301 wbs_dat_o[1]
*302 net149
*303 net150
*304 net151
*305 net152
*306 net153
*307 net154
*308 net155
*309 net156
*310 net157
*311 net158
*312 wbs_dat_o[2]
*313 net159
*314 net160
*315 wbs_dat_o[3]
*316 wbs_dat_o[4]
*317 wbs_dat_o[5]
*318 wbs_dat_o[6]
*319 wbs_dat_o[7]
*320 net137
*321 net138
*322 wbs_sel_i[0]
*323 wbs_sel_i[1]
*324 wbs_sel_i[2]
*325 wbs_sel_i[3]
*326 wbs_stb_i
*327 wbs_we_i
*328 _000_
*329 _001_
*330 _002_
*331 _003_
*332 _004_
*333 _005_
*334 _006_
*335 _007_
*336 _008_
*337 _009_
*338 _010_
*339 _011_
*340 _012_
*341 _013_
*342 _014_
*343 _015_
*344 _016_
*345 _017_
*346 _018_
*347 _019_
*348 _020_
*349 _021_
*350 _022_
*351 _023_
*352 _024_
*353 _025_
*354 _026_
*355 _027_
*356 _028_
*357 _029_
*358 _030_
*359 _031_
*360 _032_
*361 _033_
*362 _034_
*363 _035_
*364 _036_
*365 _037_
*366 _038_
*367 _039_
*368 _040_
*369 _041_
*370 _042_
*371 _043_
*372 _044_
*373 _045_
*374 _046_
*375 _047_
*376 _048_
*377 _049_
*378 _050_
*379 _051_
*380 _052_
*381 _053_
*382 _054_
*383 _055_
*384 _056_
*385 _057_
*386 _058_
*387 _059_
*388 _060_
*389 _061_
*390 _062_
*391 _063_
*392 _064_
*393 _065_
*394 _066_
*395 _067_
*396 _068_
*397 _069_
*398 _070_
*399 _071_
*400 _072_
*401 _073_
*402 _074_
*403 _075_
*404 _076_
*405 _077_
*406 _078_
*407 _079_
*408 _080_
*409 clknet_0_counter\.clk
*410 clknet_1_0__leaf_counter\.clk
*411 clknet_1_1__leaf_counter\.clk
*412 counter\.clk
*413 net1
*414 net10
*415 net11
*416 net12
*417 net13
*418 net14
*419 net15
*420 net16
*421 net161
*422 net162
*423 net163
*424 net164
*425 net165
*426 net166
*427 net167
*428 net168
*429 net169
*430 net17
*431 net170
*432 net171
*433 net172
*434 net173
*435 net174
*436 net175
*437 net176
*438 net177
*439 net178
*440 net179
*441 net18
*442 net180
*443 net181
*444 net182
*445 net183
*446 net184
*447 net185
*448 net186
*449 net187
*450 net188
*451 net189
*452 net19
*453 net190
*454 net191
*455 net192
*456 net193
*457 net194
*458 net195
*459 net196
*460 net197
*461 net198
*462 net199
*463 net2
*464 net20
*465 net200
*466 net201
*467 net202
*468 net203
*469 net204
*470 net205
*471 net206
*472 net207
*473 net21
*474 net22
*475 net23
*476 net24
*477 net25
*478 net26
*479 net27
*480 net28
*481 net29
*482 net3
*483 net30
*484 net31
*485 net32
*486 net33
*487 net34
*488 net35
*489 net36
*490 net37
*491 net38
*492 net39
*493 net4
*494 net40
*495 net41
*496 net42
*497 net43
*498 net44
*499 net45
*500 net46
*501 net47
*502 net48
*503 net49
*504 net5
*505 net50
*506 net51
*507 net52
*508 net53
*509 net54
*510 net55
*511 net56
*512 net57
*513 net58
*514 net59
*515 net6
*516 net60
*517 net61
*518 net62
*519 net63
*520 net64
*521 net65
*522 net66
*523 net67
*524 net68
*525 net69
*526 net7
*527 net70
*528 net71
*529 net72
*530 net73
*531 net74
*532 net75
*533 net76
*534 net77
*535 net8
*536 net9
*537 ANTENNA__081__I0
*538 ANTENNA__081__I1
*539 ANTENNA__081__S
*540 ANTENNA__083__I0
*541 ANTENNA__083__I1
*542 ANTENNA__083__S
*543 ANTENNA__085__I
*544 ANTENNA__086__I
*545 ANTENNA__088__A1
*546 ANTENNA__088__A3
*547 ANTENNA__089__I
*548 ANTENNA__091__A1
*549 ANTENNA__091__A2
*550 ANTENNA__091__A3
*551 ANTENNA__092__I
*552 ANTENNA__095__A1
*553 ANTENNA__096__I
*554 ANTENNA__098__A1
*555 ANTENNA__098__A2
*556 ANTENNA__098__B1
*557 ANTENNA__098__B2
*558 ANTENNA__099__A1
*559 ANTENNA__099__A2
*560 ANTENNA__099__B1
*561 ANTENNA__099__B2
*562 ANTENNA__100__B1
*563 ANTENNA__100__B2
*564 ANTENNA__101__B1
*565 ANTENNA__101__B2
*566 ANTENNA__103__A1
*567 ANTENNA__105__A1
*568 ANTENNA__105__B2
*569 ANTENNA__105__C1
*570 ANTENNA__106__A1
*571 ANTENNA__108__A1
*572 ANTENNA__109__I
*573 ANTENNA__110__A2
*574 ANTENNA__111__I
*575 ANTENNA__112__A1
*576 ANTENNA__112__C2
*577 ANTENNA__113__A1
*578 ANTENNA__114__A1
*579 ANTENNA__115__A2
*580 ANTENNA__116__A1
*581 ANTENNA__117__A1
*582 ANTENNA__117__C2
*583 ANTENNA__118__A1
*584 ANTENNA__120__A1
*585 ANTENNA__121__A2
*586 ANTENNA__121__A3
*587 ANTENNA__122__A1
*588 ANTENNA__123__A1
*589 ANTENNA__123__C2
*590 ANTENNA__126__I
*591 ANTENNA__127__A1
*592 ANTENNA__127__A2
*593 ANTENNA__127__A3
*594 ANTENNA__127__A4
*595 ANTENNA__128__A1
*596 ANTENNA__129__A1
*597 ANTENNA__130__A1
*598 ANTENNA__130__C2
*599 ANTENNA__132__A1
*600 ANTENNA__133__A1
*601 ANTENNA__134__A1
*602 ANTENNA__135__A1
*603 ANTENNA__135__C2
*604 ANTENNA__137__A1
*605 ANTENNA__137__A2
*606 ANTENNA__138__A1
*607 ANTENNA__139__A1
*608 ANTENNA__140__A1
*609 ANTENNA__140__C2
*610 ANTENNA__142__A1
*611 ANTENNA__142__A3
*612 ANTENNA__143__A1
*613 ANTENNA__144__A1
*614 ANTENNA__145__A1
*615 ANTENNA__145__C2
*616 ANTENNA__147__A1
*617 ANTENNA__148__A1
*618 ANTENNA__149__I0
*619 ANTENNA__149__I1
*620 ANTENNA__151__I
*621 ANTENNA__152__I0
*622 ANTENNA__152__I1
*623 ANTENNA__154__I0
*624 ANTENNA__154__I1
*625 ANTENNA__156__I0
*626 ANTENNA__156__I1
*627 ANTENNA__158__I0
*628 ANTENNA__158__I1
*629 ANTENNA__160__I0
*630 ANTENNA__160__I1
*631 ANTENNA__160__S
*632 ANTENNA__162__I0
*633 ANTENNA__162__I1
*634 ANTENNA__162__S
*635 ANTENNA__164__CLK
*636 ANTENNA__165__CLK
*637 ANTENNA__166__CLK
*638 ANTENNA__167__CLK
*639 ANTENNA__168__CLK
*640 ANTENNA__169__CLK
*641 ANTENNA__170__CLK
*642 ANTENNA__171__CLK
*643 ANTENNA__172__CLK
*644 ANTENNA__173__CLK
*645 ANTENNA__174__CLK
*646 ANTENNA__175__CLK
*647 ANTENNA__176__CLK
*648 ANTENNA__177__CLK
*649 ANTENNA__178__CLK
*650 ANTENNA__179__CLK
*651 ANTENNA__180__CLK
*652 ANTENNA__271__I
*653 ANTENNA__272__I
*654 ANTENNA__273__I
*655 ANTENNA__274__I
*656 ANTENNA__275__I
*657 ANTENNA__276__I
*658 ANTENNA__277__I
*659 ANTENNA__278__I
*660 ANTENNA_clkbuf_0_counter\.clk_I
*661 ANTENNA_clkbuf_1_0__f_counter\.clk_I
*662 ANTENNA_clkbuf_1_1__f_counter\.clk_I
*663 ANTENNA_fanout67_I
*664 ANTENNA_fanout69_I
*665 ANTENNA_fanout71_I
*666 ANTENNA_fanout72_I
*667 ANTENNA_fanout76_I
*668 ANTENNA_hold10_I
*669 ANTENNA_hold13_I
*670 ANTENNA_hold14_I
*671 ANTENNA_hold17_I
*672 ANTENNA_hold18_I
*673 ANTENNA_hold1_I
*674 ANTENNA_hold21_I
*675 ANTENNA_hold22_I
*676 ANTENNA_hold25_I
*677 ANTENNA_hold26_I
*678 ANTENNA_hold29_I
*679 ANTENNA_hold2_I
*680 ANTENNA_hold30_I
*681 ANTENNA_hold33_I
*682 ANTENNA_hold34_I
*683 ANTENNA_hold36_I
*684 ANTENNA_hold39_I
*685 ANTENNA_hold40_I
*686 ANTENNA_hold42_I
*687 ANTENNA_hold43_I
*688 ANTENNA_hold44_I
*689 ANTENNA_hold45_I
*690 ANTENNA_hold46_I
*691 ANTENNA_hold47_I
*692 ANTENNA_hold5_I
*693 ANTENNA_hold6_I
*694 ANTENNA_hold9_I
*695 ANTENNA_input19_I
*696 ANTENNA_input21_I
*697 ANTENNA_input22_I
*698 ANTENNA_input23_I
*699 ANTENNA_input24_I
*700 ANTENNA_input25_I
*701 ANTENNA_input26_I
*702 ANTENNA_input27_I
*703 ANTENNA_input28_I
*704 ANTENNA_input29_I
*705 ANTENNA_input30_I
*706 ANTENNA_input31_I
*707 ANTENNA_input32_I
*708 ANTENNA_input33_I
*709 ANTENNA_input9_I
*710 ANTENNA_output42_I
*711 ANTENNA_output43_I
*712 ANTENNA_output44_I
*713 ANTENNA_output45_I
*714 ANTENNA_output46_I
*715 ANTENNA_output47_I
*716 ANTENNA_output48_I
*717 ANTENNA_output49_I
*718 ANTENNA_output50_I
*719 ANTENNA_output51_I
*720 ANTENNA_output54_I
*721 ANTENNA_output58_I
*722 ANTENNA_output59_I
*723 ANTENNA_output60_I
*724 ANTENNA_output61_I
*725 ANTENNA_output62_I
*726 ANTENNA_output63_I
*727 ANTENNA_output64_I
*728 ANTENNA_output65_I
*729 ANTENNA_output66_I
*730 FILLER_0_0_1004
*731 FILLER_0_0_1006
*732 FILLER_0_0_1011
*733 FILLER_0_0_1019
*734 FILLER_0_0_1022
*735 FILLER_0_0_1038
*736 FILLER_0_0_104
*737 FILLER_0_0_1046
*738 FILLER_0_0_1048
*739 FILLER_0_0_1053
*740 FILLER_0_0_1056
*741 FILLER_0_0_1090
*742 FILLER_0_0_1095
*743 FILLER_0_0_1111
*744 FILLER_0_0_1119
*745 FILLER_0_0_1121
*746 FILLER_0_0_1124
*747 FILLER_0_0_1132
*748 FILLER_0_0_1137
*749 FILLER_0_0_1153
*750 FILLER_0_0_1155
*751 FILLER_0_0_1158
*752 FILLER_0_0_1174
*753 FILLER_0_0_1179
*754 FILLER_0_0_1187
*755 FILLER_0_0_1189
*756 FILLER_0_0_1192
*757 FILLER_0_0_1208
*758 FILLER_0_0_1216
*759 FILLER_0_0_1221
*760 FILLER_0_0_1223
*761 FILLER_0_0_1226
*762 FILLER_0_0_1264
*763 FILLER_0_0_1280
*764 FILLER_0_0_1288
*765 FILLER_0_0_1294
*766 FILLER_0_0_1298
*767 FILLER_0_0_1300
*768 FILLER_0_0_1305
*769 FILLER_0_0_1321
*770 FILLER_0_0_1325
*771 FILLER_0_0_1328
*772 FILLER_0_0_1336
*773 FILLER_0_0_1340
*774 FILLER_0_0_1342
*775 FILLER_0_0_1347
*776 FILLER_0_0_1355
*777 FILLER_0_0_1359
*778 FILLER_0_0_1362
*779 FILLER_0_0_1378
*780 FILLER_0_0_138
*781 FILLER_0_0_1382
*782 FILLER_0_0_1384
*783 FILLER_0_0_1389
*784 FILLER_0_0_1393
*785 FILLER_0_0_1396
*786 FILLER_0_0_1434
*787 FILLER_0_0_1450
*788 FILLER_0_0_1458
*789 FILLER_0_0_1464
*790 FILLER_0_0_1468
*791 FILLER_0_0_1473
*792 FILLER_0_0_1489
*793 FILLER_0_0_1493
*794 FILLER_0_0_1495
*795 FILLER_0_0_1498
*796 FILLER_0_0_1506
*797 FILLER_0_0_1510
*798 FILLER_0_0_1515
*799 FILLER_0_0_1523
*800 FILLER_0_0_1527
*801 FILLER_0_0_1529
*802 FILLER_0_0_1532
*803 FILLER_0_0_1548
*804 FILLER_0_0_1552
*805 FILLER_0_0_1557
*806 FILLER_0_0_1561
*807 FILLER_0_0_1563
*808 FILLER_0_0_1566
*809 FILLER_0_0_1604
*810 FILLER_0_0_1620
*811 FILLER_0_0_1628
*812 FILLER_0_0_1634
*813 FILLER_0_0_1636
*814 FILLER_0_0_1641
*815 FILLER_0_0_1657
*816 FILLER_0_0_1665
*817 FILLER_0_0_1668
*818 FILLER_0_0_1676
*819 FILLER_0_0_1678
*820 FILLER_0_0_1683
*821 FILLER_0_0_1699
*822 FILLER_0_0_1702
*823 FILLER_0_0_1706
*824 FILLER_0_0_172
*825 FILLER_0_0_1733
*826 FILLER_0_0_1736
*827 FILLER_0_0_1740
*828 FILLER_0_0_1770
*829 FILLER_0_0_1774
*830 FILLER_0_0_1790
*831 FILLER_0_0_1800
*832 FILLER_0_0_1804
*833 FILLER_0_0_1808
*834 FILLER_0_0_1824
*835 FILLER_0_0_1832
*836 FILLER_0_0_1864
*837 FILLER_0_0_1868
*838 FILLER_0_0_1872
*839 FILLER_0_0_1874
*840 FILLER_0_0_1901
*841 FILLER_0_0_1903
*842 FILLER_0_0_1906
*843 FILLER_0_0_1910
*844 FILLER_0_0_1940
*845 FILLER_0_0_1954
*846 FILLER_0_0_1958
*847 FILLER_0_0_1962
*848 FILLER_0_0_2
*849 FILLER_0_0_2034
*850 FILLER_0_0_2038
*851 FILLER_0_0_2042
*852 FILLER_0_0_2047
*853 FILLER_0_0_206
*854 FILLER_0_0_2063
*855 FILLER_0_0_2071
*856 FILLER_0_0_2073
*857 FILLER_0_0_2076
*858 FILLER_0_0_2084
*859 FILLER_0_0_2089
*860 FILLER_0_0_2105
*861 FILLER_0_0_2107
*862 FILLER_0_0_2110
*863 FILLER_0_0_2126
*864 FILLER_0_0_2131
*865 FILLER_0_0_2139
*866 FILLER_0_0_214
*867 FILLER_0_0_2141
*868 FILLER_0_0_2144
*869 FILLER_0_0_2160
*870 FILLER_0_0_2168
*871 FILLER_0_0_2173
*872 FILLER_0_0_2175
*873 FILLER_0_0_2178
*874 FILLER_0_0_218
*875 FILLER_0_0_220
*876 FILLER_0_0_2216
*877 FILLER_0_0_2232
*878 FILLER_0_0_2240
*879 FILLER_0_0_2246
*880 FILLER_0_0_2250
*881 FILLER_0_0_2252
*882 FILLER_0_0_2257
*883 FILLER_0_0_2267
*884 FILLER_0_0_2275
*885 FILLER_0_0_2277
*886 FILLER_0_0_2280
*887 FILLER_0_0_2288
*888 FILLER_0_0_2292
*889 FILLER_0_0_2294
*890 FILLER_0_0_2299
*891 FILLER_0_0_2307
*892 FILLER_0_0_2311
*893 FILLER_0_0_2314
*894 FILLER_0_0_2330
*895 FILLER_0_0_2334
*896 FILLER_0_0_2336
*897 FILLER_0_0_2341
*898 FILLER_0_0_2345
*899 FILLER_0_0_2348
*900 FILLER_0_0_2356
*901 FILLER_0_0_237
*902 FILLER_0_0_2374
*903 FILLER_0_0_2404
*904 FILLER_0_0_2408
*905 FILLER_0_0_2416
*906 FILLER_0_0_2454
*907 FILLER_0_0_2458
*908 FILLER_0_0_2462
*909 FILLER_0_0_2464
*910 FILLER_0_0_2479
*911 FILLER_0_0_2481
*912 FILLER_0_0_2498
*913 FILLER_0_0_2515
*914 FILLER_0_0_2518
*915 FILLER_0_0_2536
*916 FILLER_0_0_2538
*917 FILLER_0_0_2544
*918 FILLER_0_0_2548
*919 FILLER_0_0_2556
*920 FILLER_0_0_2563
*921 FILLER_0_0_2573
*922 FILLER_0_0_2577
*923 FILLER_0_0_2581
*924 FILLER_0_0_2583
*925 FILLER_0_0_2586
*926 FILLER_0_0_2629
*927 FILLER_0_0_2635
*928 FILLER_0_0_2639
*929 FILLER_0_0_2643
*930 FILLER_0_0_2647
*931 FILLER_0_0_2651
*932 FILLER_0_0_2654
*933 FILLER_0_0_2658
*934 FILLER_0_0_266
*935 FILLER_0_0_2662
*936 FILLER_0_0_2683
*937 FILLER_0_0_2685
*938 FILLER_0_0_2688
*939 FILLER_0_0_2692
*940 FILLER_0_0_2708
*941 FILLER_0_0_2712
*942 FILLER_0_0_2714
*943 FILLER_0_0_2719
*944 FILLER_0_0_2722
*945 FILLER_0_0_2756
*946 FILLER_0_0_2761
*947 FILLER_0_0_2777
*948 FILLER_0_0_2785
*949 FILLER_0_0_2787
*950 FILLER_0_0_2790
*951 FILLER_0_0_2798
*952 FILLER_0_0_2803
*953 FILLER_0_0_2819
*954 FILLER_0_0_2821
*955 FILLER_0_0_2824
*956 FILLER_0_0_2840
*957 FILLER_0_0_2845
*958 FILLER_0_0_2853
*959 FILLER_0_0_2855
*960 FILLER_0_0_2858
*961 FILLER_0_0_2874
*962 FILLER_0_0_2882
*963 FILLER_0_0_2887
*964 FILLER_0_0_2889
*965 FILLER_0_0_2892
*966 FILLER_0_0_2930
*967 FILLER_0_0_2946
*968 FILLER_0_0_2954
*969 FILLER_0_0_2960
*970 FILLER_0_0_2964
*971 FILLER_0_0_2966
*972 FILLER_0_0_2971
*973 FILLER_0_0_2987
*974 FILLER_0_0_2991
*975 FILLER_0_0_2994
*976 FILLER_0_0_300
*977 FILLER_0_0_3002
*978 FILLER_0_0_3006
*979 FILLER_0_0_3008
*980 FILLER_0_0_3013
*981 FILLER_0_0_3021
*982 FILLER_0_0_3025
*983 FILLER_0_0_3028
*984 FILLER_0_0_304
*985 FILLER_0_0_3044
*986 FILLER_0_0_3048
*987 FILLER_0_0_3050
*988 FILLER_0_0_3055
*989 FILLER_0_0_3059
*990 FILLER_0_0_3062
*991 FILLER_0_0_308
*992 FILLER_0_0_3100
*993 FILLER_0_0_3116
*994 FILLER_0_0_312
*995 FILLER_0_0_3124
*996 FILLER_0_0_3130
*997 FILLER_0_0_3134
*998 FILLER_0_0_3139
*999 FILLER_0_0_3155
*1000 FILLER_0_0_3159
*1001 FILLER_0_0_3161
*1002 FILLER_0_0_3164
*1003 FILLER_0_0_3172
*1004 FILLER_0_0_3176
*1005 FILLER_0_0_3181
*1006 FILLER_0_0_3189
*1007 FILLER_0_0_3193
*1008 FILLER_0_0_3195
*1009 FILLER_0_0_3198
*1010 FILLER_0_0_3214
*1011 FILLER_0_0_3218
*1012 FILLER_0_0_3223
*1013 FILLER_0_0_3227
*1014 FILLER_0_0_3229
*1015 FILLER_0_0_3232
*1016 FILLER_0_0_3270
*1017 FILLER_0_0_3286
*1018 FILLER_0_0_3294
*1019 FILLER_0_0_3300
*1020 FILLER_0_0_3316
*1021 FILLER_0_0_3318
*1022 FILLER_0_0_3327
*1023 FILLER_0_0_3331
*1024 FILLER_0_0_3334
*1025 FILLER_0_0_3342
*1026 FILLER_0_0_3344
*1027 FILLER_0_0_3349
*1028 FILLER_0_0_3365
*1029 FILLER_0_0_3368
*1030 FILLER_0_0_3384
*1031 FILLER_0_0_3397
*1032 FILLER_0_0_3399
*1033 FILLER_0_0_3402
*1034 FILLER_0_0_3418
*1035 FILLER_0_0_3426
*1036 FILLER_0_0_3428
*1037 FILLER_0_0_3433
*1038 FILLER_0_0_3436
*1039 FILLER_0_0_3470
*1040 FILLER_0_0_3475
*1041 FILLER_0_0_348
*1042 FILLER_0_0_3491
*1043 FILLER_0_0_3499
*1044 FILLER_0_0_3501
*1045 FILLER_0_0_3504
*1046 FILLER_0_0_3512
*1047 FILLER_0_0_3517
*1048 FILLER_0_0_352
*1049 FILLER_0_0_3533
*1050 FILLER_0_0_3535
*1051 FILLER_0_0_3538
*1052 FILLER_0_0_3554
*1053 FILLER_0_0_3559
*1054 FILLER_0_0_356
*1055 FILLER_0_0_3567
*1056 FILLER_0_0_3569
*1057 FILLER_0_0_3572
*1058 FILLER_0_0_3588
*1059 FILLER_0_0_3596
*1060 FILLER_0_0_36
*1061 FILLER_0_0_3601
*1062 FILLER_0_0_3603
*1063 FILLER_0_0_3606
*1064 FILLER_0_0_3644
*1065 FILLER_0_0_3660
*1066 FILLER_0_0_3668
*1067 FILLER_0_0_3674
*1068 FILLER_0_0_3678
*1069 FILLER_0_0_3680
*1070 FILLER_0_0_3685
*1071 FILLER_0_0_3701
*1072 FILLER_0_0_3705
*1073 FILLER_0_0_3708
*1074 FILLER_0_0_3716
*1075 FILLER_0_0_3720
*1076 FILLER_0_0_3722
*1077 FILLER_0_0_3727
*1078 FILLER_0_0_3735
*1079 FILLER_0_0_3739
*1080 FILLER_0_0_3742
*1081 FILLER_0_0_3758
*1082 FILLER_0_0_376
*1083 FILLER_0_0_3762
*1084 FILLER_0_0_3764
*1085 FILLER_0_0_3769
*1086 FILLER_0_0_3773
*1087 FILLER_0_0_3776
*1088 FILLER_0_0_3814
*1089 FILLER_0_0_3830
*1090 FILLER_0_0_3838
*1091 FILLER_0_0_3844
*1092 FILLER_0_0_3848
*1093 FILLER_0_0_3853
*1094 FILLER_0_0_3869
*1095 FILLER_0_0_3873
*1096 FILLER_0_0_3875
*1097 FILLER_0_0_3878
*1098 FILLER_0_0_3886
*1099 FILLER_0_0_3890
*1100 FILLER_0_0_3895
*1101 FILLER_0_0_3903
*1102 FILLER_0_0_3907
*1103 FILLER_0_0_3909
*1104 FILLER_0_0_3912
*1105 FILLER_0_0_3928
*1106 FILLER_0_0_3932
*1107 FILLER_0_0_3937
*1108 FILLER_0_0_3941
*1109 FILLER_0_0_3943
*1110 FILLER_0_0_3946
*1111 FILLER_0_0_3962
*1112 FILLER_0_0_3971
*1113 FILLER_0_0_3975
*1114 FILLER_0_0_3977
*1115 FILLER_0_0_3984
*1116 FILLER_0_0_3986
*1117 FILLER_0_0_4026
*1118 FILLER_0_0_403
*1119 FILLER_0_0_4030
*1120 FILLER_0_0_4041
*1121 FILLER_0_0_4043
*1122 FILLER_0_0_4064
*1123 FILLER_0_0_407
*1124 FILLER_0_0_4072
*1125 FILLER_0_0_4076
*1126 FILLER_0_0_410
*1127 FILLER_0_0_4107
*1128 FILLER_0_0_4111
*1129 FILLER_0_0_414
*1130 FILLER_0_0_4141
*1131 FILLER_0_0_4145
*1132 FILLER_0_0_4147
*1133 FILLER_0_0_4154
*1134 FILLER_0_0_4156
*1135 FILLER_0_0_416
*1136 FILLER_0_0_4184
*1137 FILLER_0_0_4189
*1138 FILLER_0_0_4234
*1139 FILLER_0_0_4238
*1140 FILLER_0_0_4252
*1141 FILLER_0_0_4272
*1142 FILLER_0_0_4280
*1143 FILLER_0_0_4315
*1144 FILLER_0_0_4317
*1145 FILLER_0_0_4320
*1146 FILLER_0_0_4322
*1147 FILLER_0_0_433
*1148 FILLER_0_0_4339
*1149 FILLER_0_0_4347
*1150 FILLER_0_0_4351
*1151 FILLER_0_0_4358
*1152 FILLER_0_0_4360
*1153 FILLER_0_0_4392
*1154 FILLER_0_0_4394
*1155 FILLER_0_0_4399
*1156 FILLER_0_0_4407
*1157 FILLER_0_0_441
*1158 FILLER_0_0_4413
*1159 FILLER_0_0_4417
*1160 FILLER_0_0_4419
*1161 FILLER_0_0_4422
*1162 FILLER_0_0_444
*1163 FILLER_0_0_4456
*1164 FILLER_0_0_4490
*1165 FILLER_0_0_4524
*1166 FILLER_0_0_4558
*1167 FILLER_0_0_4592
*1168 FILLER_0_0_4600
*1169 FILLER_0_0_4608
*1170 FILLER_0_0_478
*1171 FILLER_0_0_482
*1172 FILLER_0_0_512
*1173 FILLER_0_0_516
*1174 FILLER_0_0_524
*1175 FILLER_0_0_528
*1176 FILLER_0_0_572
*1177 FILLER_0_0_576
*1178 FILLER_0_0_580
*1179 FILLER_0_0_584
*1180 FILLER_0_0_614
*1181 FILLER_0_0_618
*1182 FILLER_0_0_648
*1183 FILLER_0_0_652
*1184 FILLER_0_0_654
*1185 FILLER_0_0_671
*1186 FILLER_0_0_679
*1187 FILLER_0_0_682
*1188 FILLER_0_0_70
*1189 FILLER_0_0_720
*1190 FILLER_0_0_736
*1191 FILLER_0_0_744
*1192 FILLER_0_0_750
*1193 FILLER_0_0_754
*1194 FILLER_0_0_759
*1195 FILLER_0_0_775
*1196 FILLER_0_0_779
*1197 FILLER_0_0_781
*1198 FILLER_0_0_784
*1199 FILLER_0_0_792
*1200 FILLER_0_0_796
*1201 FILLER_0_0_801
*1202 FILLER_0_0_809
*1203 FILLER_0_0_813
*1204 FILLER_0_0_815
*1205 FILLER_0_0_818
*1206 FILLER_0_0_834
*1207 FILLER_0_0_838
*1208 FILLER_0_0_843
*1209 FILLER_0_0_847
*1210 FILLER_0_0_849
*1211 FILLER_0_0_852
*1212 FILLER_0_0_890
*1213 FILLER_0_0_906
*1214 FILLER_0_0_914
*1215 FILLER_0_0_920
*1216 FILLER_0_0_922
*1217 FILLER_0_0_927
*1218 FILLER_0_0_943
*1219 FILLER_0_0_951
*1220 FILLER_0_0_954
*1221 FILLER_0_0_962
*1222 FILLER_0_0_964
*1223 FILLER_0_0_969
*1224 FILLER_0_0_985
*1225 FILLER_0_0_988
*1226 FILLER_0_10_101
*1227 FILLER_0_10_1011
*1228 FILLER_0_10_1017
*1229 FILLER_0_10_107
*1230 FILLER_0_10_1081
*1231 FILLER_0_10_1087
*1232 FILLER_0_10_1151
*1233 FILLER_0_10_1157
*1234 FILLER_0_10_1221
*1235 FILLER_0_10_1227
*1236 FILLER_0_10_1291
*1237 FILLER_0_10_1297
*1238 FILLER_0_10_1361
*1239 FILLER_0_10_1367
*1240 FILLER_0_10_1431
*1241 FILLER_0_10_1437
*1242 FILLER_0_10_1501
*1243 FILLER_0_10_1507
*1244 FILLER_0_10_1571
*1245 FILLER_0_10_1577
*1246 FILLER_0_10_1641
*1247 FILLER_0_10_1647
*1248 FILLER_0_10_171
*1249 FILLER_0_10_1711
*1250 FILLER_0_10_1717
*1251 FILLER_0_10_177
*1252 FILLER_0_10_1781
*1253 FILLER_0_10_1787
*1254 FILLER_0_10_1851
*1255 FILLER_0_10_1857
*1256 FILLER_0_10_1921
*1257 FILLER_0_10_1927
*1258 FILLER_0_10_1991
*1259 FILLER_0_10_1997
*1260 FILLER_0_10_2
*1261 FILLER_0_10_2061
*1262 FILLER_0_10_2067
*1263 FILLER_0_10_2131
*1264 FILLER_0_10_2137
*1265 FILLER_0_10_2201
*1266 FILLER_0_10_2207
*1267 FILLER_0_10_2271
*1268 FILLER_0_10_2277
*1269 FILLER_0_10_2341
*1270 FILLER_0_10_2347
*1271 FILLER_0_10_241
*1272 FILLER_0_10_2411
*1273 FILLER_0_10_2417
*1274 FILLER_0_10_247
*1275 FILLER_0_10_2481
*1276 FILLER_0_10_2487
*1277 FILLER_0_10_2551
*1278 FILLER_0_10_2557
*1279 FILLER_0_10_2621
*1280 FILLER_0_10_2627
*1281 FILLER_0_10_2691
*1282 FILLER_0_10_2697
*1283 FILLER_0_10_2761
*1284 FILLER_0_10_2767
*1285 FILLER_0_10_2831
*1286 FILLER_0_10_2837
*1287 FILLER_0_10_2901
*1288 FILLER_0_10_2907
*1289 FILLER_0_10_2971
*1290 FILLER_0_10_2977
*1291 FILLER_0_10_3041
*1292 FILLER_0_10_3047
*1293 FILLER_0_10_311
*1294 FILLER_0_10_3111
*1295 FILLER_0_10_3117
*1296 FILLER_0_10_317
*1297 FILLER_0_10_3181
*1298 FILLER_0_10_3187
*1299 FILLER_0_10_3251
*1300 FILLER_0_10_3257
*1301 FILLER_0_10_3321
*1302 FILLER_0_10_3327
*1303 FILLER_0_10_3391
*1304 FILLER_0_10_3397
*1305 FILLER_0_10_34
*1306 FILLER_0_10_3461
*1307 FILLER_0_10_3467
*1308 FILLER_0_10_3531
*1309 FILLER_0_10_3537
*1310 FILLER_0_10_3601
*1311 FILLER_0_10_3607
*1312 FILLER_0_10_3671
*1313 FILLER_0_10_3677
*1314 FILLER_0_10_37
*1315 FILLER_0_10_3741
*1316 FILLER_0_10_3747
*1317 FILLER_0_10_381
*1318 FILLER_0_10_3811
*1319 FILLER_0_10_3817
*1320 FILLER_0_10_387
*1321 FILLER_0_10_3881
*1322 FILLER_0_10_3887
*1323 FILLER_0_10_3951
*1324 FILLER_0_10_3957
*1325 FILLER_0_10_4021
*1326 FILLER_0_10_4027
*1327 FILLER_0_10_4091
*1328 FILLER_0_10_4097
*1329 FILLER_0_10_4161
*1330 FILLER_0_10_4167
*1331 FILLER_0_10_4231
*1332 FILLER_0_10_4237
*1333 FILLER_0_10_4301
*1334 FILLER_0_10_4307
*1335 FILLER_0_10_4371
*1336 FILLER_0_10_4377
*1337 FILLER_0_10_4441
*1338 FILLER_0_10_4447
*1339 FILLER_0_10_451
*1340 FILLER_0_10_4511
*1341 FILLER_0_10_4517
*1342 FILLER_0_10_457
*1343 FILLER_0_10_4581
*1344 FILLER_0_10_4587
*1345 FILLER_0_10_4589
*1346 FILLER_0_10_521
*1347 FILLER_0_10_527
*1348 FILLER_0_10_591
*1349 FILLER_0_10_597
*1350 FILLER_0_10_661
*1351 FILLER_0_10_667
*1352 FILLER_0_10_731
*1353 FILLER_0_10_737
*1354 FILLER_0_10_801
*1355 FILLER_0_10_807
*1356 FILLER_0_10_871
*1357 FILLER_0_10_877
*1358 FILLER_0_10_941
*1359 FILLER_0_10_947
*1360 FILLER_0_11_1046
*1361 FILLER_0_11_1052
*1362 FILLER_0_11_1116
*1363 FILLER_0_11_1122
*1364 FILLER_0_11_1186
*1365 FILLER_0_11_1192
*1366 FILLER_0_11_1256
*1367 FILLER_0_11_1262
*1368 FILLER_0_11_1326
*1369 FILLER_0_11_1332
*1370 FILLER_0_11_136
*1371 FILLER_0_11_1396
*1372 FILLER_0_11_1402
*1373 FILLER_0_11_142
*1374 FILLER_0_11_1466
*1375 FILLER_0_11_1472
*1376 FILLER_0_11_1536
*1377 FILLER_0_11_1542
*1378 FILLER_0_11_1606
*1379 FILLER_0_11_1612
*1380 FILLER_0_11_1676
*1381 FILLER_0_11_1682
*1382 FILLER_0_11_1746
*1383 FILLER_0_11_1752
*1384 FILLER_0_11_1816
*1385 FILLER_0_11_1822
*1386 FILLER_0_11_1886
*1387 FILLER_0_11_1892
*1388 FILLER_0_11_1956
*1389 FILLER_0_11_1962
*1390 FILLER_0_11_2
*1391 FILLER_0_11_2026
*1392 FILLER_0_11_2032
*1393 FILLER_0_11_206
*1394 FILLER_0_11_2096
*1395 FILLER_0_11_2102
*1396 FILLER_0_11_212
*1397 FILLER_0_11_2166
*1398 FILLER_0_11_2172
*1399 FILLER_0_11_2236
*1400 FILLER_0_11_2242
*1401 FILLER_0_11_2306
*1402 FILLER_0_11_2312
*1403 FILLER_0_11_2376
*1404 FILLER_0_11_2382
*1405 FILLER_0_11_2446
*1406 FILLER_0_11_2452
*1407 FILLER_0_11_2516
*1408 FILLER_0_11_2522
*1409 FILLER_0_11_2586
*1410 FILLER_0_11_2592
*1411 FILLER_0_11_2656
*1412 FILLER_0_11_2662
*1413 FILLER_0_11_2726
*1414 FILLER_0_11_2732
*1415 FILLER_0_11_276
*1416 FILLER_0_11_2796
*1417 FILLER_0_11_2802
*1418 FILLER_0_11_282
*1419 FILLER_0_11_2866
*1420 FILLER_0_11_2872
*1421 FILLER_0_11_2936
*1422 FILLER_0_11_2942
*1423 FILLER_0_11_3006
*1424 FILLER_0_11_3012
*1425 FILLER_0_11_3076
*1426 FILLER_0_11_3082
*1427 FILLER_0_11_3146
*1428 FILLER_0_11_3152
*1429 FILLER_0_11_3216
*1430 FILLER_0_11_3222
*1431 FILLER_0_11_3286
*1432 FILLER_0_11_3292
*1433 FILLER_0_11_3356
*1434 FILLER_0_11_3362
*1435 FILLER_0_11_3426
*1436 FILLER_0_11_3432
*1437 FILLER_0_11_346
*1438 FILLER_0_11_3496
*1439 FILLER_0_11_3502
*1440 FILLER_0_11_352
*1441 FILLER_0_11_3566
*1442 FILLER_0_11_3572
*1443 FILLER_0_11_3636
*1444 FILLER_0_11_3642
*1445 FILLER_0_11_3706
*1446 FILLER_0_11_3712
*1447 FILLER_0_11_3776
*1448 FILLER_0_11_3782
*1449 FILLER_0_11_3846
*1450 FILLER_0_11_3852
*1451 FILLER_0_11_3916
*1452 FILLER_0_11_3922
*1453 FILLER_0_11_3986
*1454 FILLER_0_11_3992
*1455 FILLER_0_11_4056
*1456 FILLER_0_11_4062
*1457 FILLER_0_11_4126
*1458 FILLER_0_11_4132
*1459 FILLER_0_11_416
*1460 FILLER_0_11_4196
*1461 FILLER_0_11_4202
*1462 FILLER_0_11_422
*1463 FILLER_0_11_4266
*1464 FILLER_0_11_4272
*1465 FILLER_0_11_4336
*1466 FILLER_0_11_4342
*1467 FILLER_0_11_4406
*1468 FILLER_0_11_4412
*1469 FILLER_0_11_4476
*1470 FILLER_0_11_4482
*1471 FILLER_0_11_4546
*1472 FILLER_0_11_4552
*1473 FILLER_0_11_4584
*1474 FILLER_0_11_4600
*1475 FILLER_0_11_4608
*1476 FILLER_0_11_486
*1477 FILLER_0_11_492
*1478 FILLER_0_11_556
*1479 FILLER_0_11_562
*1480 FILLER_0_11_626
*1481 FILLER_0_11_632
*1482 FILLER_0_11_66
*1483 FILLER_0_11_696
*1484 FILLER_0_11_702
*1485 FILLER_0_11_72
*1486 FILLER_0_11_766
*1487 FILLER_0_11_772
*1488 FILLER_0_11_836
*1489 FILLER_0_11_842
*1490 FILLER_0_11_906
*1491 FILLER_0_11_912
*1492 FILLER_0_11_976
*1493 FILLER_0_11_982
*1494 FILLER_0_12_101
*1495 FILLER_0_12_1011
*1496 FILLER_0_12_1017
*1497 FILLER_0_12_107
*1498 FILLER_0_12_1081
*1499 FILLER_0_12_1087
*1500 FILLER_0_12_1151
*1501 FILLER_0_12_1157
*1502 FILLER_0_12_1221
*1503 FILLER_0_12_1227
*1504 FILLER_0_12_1291
*1505 FILLER_0_12_1297
*1506 FILLER_0_12_1361
*1507 FILLER_0_12_1367
*1508 FILLER_0_12_1431
*1509 FILLER_0_12_1437
*1510 FILLER_0_12_1501
*1511 FILLER_0_12_1507
*1512 FILLER_0_12_1571
*1513 FILLER_0_12_1577
*1514 FILLER_0_12_1641
*1515 FILLER_0_12_1647
*1516 FILLER_0_12_171
*1517 FILLER_0_12_1711
*1518 FILLER_0_12_1717
*1519 FILLER_0_12_177
*1520 FILLER_0_12_1781
*1521 FILLER_0_12_1787
*1522 FILLER_0_12_1851
*1523 FILLER_0_12_1857
*1524 FILLER_0_12_1921
*1525 FILLER_0_12_1927
*1526 FILLER_0_12_1991
*1527 FILLER_0_12_1997
*1528 FILLER_0_12_2
*1529 FILLER_0_12_2061
*1530 FILLER_0_12_2067
*1531 FILLER_0_12_2131
*1532 FILLER_0_12_2137
*1533 FILLER_0_12_2201
*1534 FILLER_0_12_2207
*1535 FILLER_0_12_2271
*1536 FILLER_0_12_2277
*1537 FILLER_0_12_2341
*1538 FILLER_0_12_2347
*1539 FILLER_0_12_241